data_image0
_chemical_formula_structural       C3HCHCH2CH6C2H4SH4CHC2H4CH4NC4H6CH2CHCH2CH3CHC2H2CH2CHC2HC2H6NHCH2CH2C2HCH3C2HCHNH3CH3CHFeS2FeHSFeHCS3HFeSH2FeS2FeS2FeSFeS3FeS2CH2S2H3C2H2FeS2FeS2FeSCFeSFeHS2H2FeCH2C3H3CH2C6H4CH10C6H4C6H2SHC6H4NHCSHC6H7CHCHCH2Fe2NHCNC5HCH8CH2C2H3NC12H25CHCHCHCH2CFeH3CH2C3H7CSHC3H2SHC2HSH5C4H10FeCH4C2NH2CHFeH6CHCH2NHC3HCFeHCHCH3NC2H4CH7C2HCHSCHC6H3CH2NCH4C2H4CH6C2H2CH3CH6CHC2HCSHC2H3C2HCH2CH2C2H3CH3CSH3C2SCHC2HCH3SH3C3SH2CH4CH5C2HCHCHCH3CHCH2CH3CH5S2H4CH2FeSHCH4CHCHSH2CH2C2HCH2C2HCH4CHNH2C2HCH3SCHCH6SHCHC2HFeCH3CSH2CHFeS2FeH2FeHFeS3HFeSFeHFeS2FeS2FeSFeS3FeS2H3CH4CH2SFeS2FeS2FeSHFeSFeHS2HCH3CHC2H3CH2C6H4C2H2CH6C6H4C6H4C6H6CHSC6H4CH3CNC5HC3H8CFeH5CH3CH3CHCH3C3HCH2NC12H28C3HFeH2CH2C2NCNCHC2HC2HC2HS2CSCH2CH4CH6CH2C2H3CH3C2H5CH2CHCH3SH4SC2HCH6CNSH2CHNHFeSCH2SCH3CH3CHC3HCH7CH3CHSHC2NH2CHFeHC2HNCH5CHCHCH5CH5CHC5HC3H2CH2CH2CH6SHCH3C2H2SHCH2SCH4CH2CSHFeH8SCH2FeCH2CH2C3HCHCSH2CHCH3CH3CH2SH2CH3C2FeNCHCH2CH5C2H3CH5C5H4CHCHC2HCHSHCHCNH2CH2FeSH8CH2CHC2H3C2HFeS2FeS2FeSFeS4FeS3H3C8H3C6H4CHC7H4NC9H19SFeH3FeH6CHCH3C3NC3HCH9C2HC2NCH2CH5C3H3CH5C3HNH2C2HCH2CH2CH2CH3C3H4CH7C3HCH2CH2C2HC2H5C3H8CH7CHCHCH3CH3CHC2HSCHSHFeH2SH2CH2CH2CNC2HNHCSHC3H2CH8CH7CH3CH2CHSH5SC2HFeC2HCH3CH4C3H2CH4CH3CH4CH3CH2SHN2C2H2C2H2SH4CHC2HCH3CH2C2HCH2CHFeS2FeS2FeSFeS3FeS2CSFeSHS3HC2HCHC6H5SHCH2C6H4C6H4CHC2H3C6SHNC8SC2H22CHFeC2H5CH3CH2CHCNC6FeH9CH2CH4CHCHCHCHCHC2H4NC9H2CH19CH3CH3NC9H17CHCHCFeH5NCHNHC2H3C2H2CHC3H5CH3C2SH6C3H6CHCH6CH4CHCH3CH3CSH3SHCSHCH4CH4SH5CH2CH2C3NH7CH4CH3CFeS2FeCSFeSCSCFeS2FeS2FeSFeS3FeS2FeS2FeSHSFeSFeS2FeHFeHS2CH2SHSH3CNH2C6H4C6H3C6H3C2HCH3C8H4C4HCH2CHC2HC4H3CHCH3CH8NC7SC3H28CHSH3CH2FeSC2H8C3H6C3H3CH3CH3C2H4CH3CH6NH5CHC2NC12H8CH18SC2H2FeHSFeCSFeSCSHFeS2FeS2FeSFeS3FeS2FeS2FeSHSFeHFeS2FeCFeHS2H4CH6C8H4C6H4C4HCH2C2H2CH4C6H4C2H3CH2CHCHNHC2HCH2SH2C2H3CH4CHCHCH7CHCH2CH5NC9HCH8CHCH3CH6C2H6CH2CHCHSCHC2SH6SH3CH3C2HCNH3CHSH2C2HCNCHCH2FeHCH2NC9H19CH2C3HC2HC3HCH5CHCHSH4CH2C3NC2H2C2H4CH6C2H2CH4CH3CH10CS3FeSFe2S2FeSFeS4HCHCSH4CH3SC2HFe3S3C6H5CH2CNFeH5CH4SC8H4C2H2C2H4C6H3C3HC2H4C6H2CH2NC12H16C2H8SCHCHNCH3CHSH4CHFeHC4H5SHFeH2SCH3SNC2HCHNH2CHCH4CH4CH8SH4CNC9HCH19CH4FeH3NC7FeC3H25CHC2HC3H4C5HCH2CHC2H2C4H3C3H11CH2CSHFeH3SC2FeHCSH2CSHCH4SCNH2CSHC2H3CHCHSH5CHFeH2C2H3CH3CSH2CH2CH2CH2CH2CFeH2SFeC3H3CSHNC2HCH2CH4CH4CSH4CH2C2HCHNCH4FeC2HSHFeC2H3S3FeSHFeSHFeSFeS5H3SHFeCSHSHFeHSH2NHFeS3C6H4CH2CNH5CHCH4SCHC6H4C4HCH2CHCH2C3H3C2NCSCHFeH2C6HCH4NHSH3CHCHCH2NC5HFeC5H6CH4CHCH10CSH3CH2C2HCH6C2HSH2C2H6CH5FeHCHSHC2H2SCHFeHNC5HC4H15CH3CNC2SHC2SCH5CH5CH5CHS2CHCHFeH3CHSC2SFeC3HCH2SHC2HCNHCH3CH5CHC2SHC2HCHCHNH2CHCH7CH5CH2CHSH2C2HCSCHFeH2CSHCHCH2CH5C3H3FeH2C2FeC2H5CH2C2H2SC2HCHFeHCHCH6CHCHSCH10CHCH6CSH3CHC2HCHCHC3HCH6CHCHCFeHFeH16SC2H4C3H3CHCHFeH2SH3CHCFeS2FeS2FeSFeSCFeCSFeSHFeSHSCH4S2FeS2FeSFe2SFeS3FeSFeSNHFeHC6H4C6H4C3H5C2H7CHSC3SCH2C6H4C6H3C7HCH2C3H8CHCHCHSHSCH6CH4CH3CHC2H3CH3CHCFeCH3CHC2HCHSH3CHCH2CHCH4CHFeCH4C2HCH5CHNC2HC3HC3SH5CH5SH11CHNH2SCHNC12H31NCH4CH13SHC2HC7H12C2H4SHSH2CHNHC2HCH2C2HCFeCH2SH3CH2C2HCH4CHCH8CHC2H3SH3FeS2FeS2FeSFeSHFeS2FeSHFeSCS2CH3S2FeS2FeSHFeSFeS3FeSFeSH4C6H4C6H4C6H2CH2C3HS2C6H4C6H4C6H4C6H17S2HCHFeH3NHSH9C3H2C2HC3SHC2H4CSH4CH2NH3NCHCH2FeC2HCH3CH3FeHC2SH9C2H5NCHC5HC4H2CH10CH14NC12H29CH3C3H3NH2CH4CHC2H5C2HCH8SH9CHC2H4CH2NC2HCHFeHCH3CHCH3CH3C3H5SCHCH3CH2C2HCH6FeS2FeHSFeHFeHS2H3FeSFeSHSNCH3SHSHCHC2H3C6H3C5H4CHCHC4H5C5H3C2H2NH2CH2C2HCHC2H3CHCH3CNH3SHSH8SC3H2NHCH2C2H2C3FeHCH5CH2CHC2H5C2NH2CH5SHCHCHCHCH2C2HCNC5H4CH2CH5CH4CH4CHCHC2HCH2CH3CSH3C2SH6FeS2FeCSFeHFeHS2CH2FeSFeSH5CH3CH8C2H3NH4C2SC3HCHSH3C4H3C6H5CHCSC6HC2HSHC2NH4CHC2H11C3H4C2HC4SH2CH5CH2C3H4C2NCH2CHCH2CHCH4CH7CH6CH2C2SCH5CHC3HNCH3NH4CHC2H3CFeC2HSC3H2CHCHCHCHSHSH2C2H7CSC2HCHSCHSH3SCH2SCH6C3HC3HC2H6C5H7FeCHFeC2H2C6H2CH3CHCH2CHCHCHCH9CH2CHCHCNHCH2SH2CHNCH4CH2CH4CH2CHCH3C2H2CH2CH2CSH2CH3SH2C2HCH4CHCH5C2HFeHCHNH2CHCH2CS2H6CH5SH4CH2CH7C2HC2SCH3CSHCSHCSHC2HSCHCH3CH4C2H2C3HCHC2H2CSCH3CHC4SCH2CSC4HCH7CHFeSC3H2CH10FeH5SH9CH4C2HNH3NC4H2C3HC2H21C2HCH3CH2CH2CHC2H6CH2C2NHCH5CH2FeCH5SCFeS2FeS2FeSFeS3H5SC2HFeS2FeSCFeSFeS3C6H4C6H7CH2C8H4C6H4C6H4C6H11CH2CH2CH4SHCH3CHCHC3HFeH2CHCH3CH3C3H2CH5NC2H2CHCH3NFeCH3CHSH2CSH2CH3CH4CH3CHNC2H3CHCH2C2H16CHSH3C2H5CH3CH2CHCHC4H4C3H3CHCH2CH2CH4NH3CNC10H21CNC12H18CH4CH4CH6SCH2NH3SHCHCFeH4SH2C3HC2HCHCSHFeS2FeS2FeSFeS3H5SCSHFeS2FeSHFeSFeS3C6H3C7H5C3HCH2C6H4C6H4C6H4C6H4CH3CH8CNCH2CH3CH5CH4CHCH3CHCH2CH3NC3NC4HCH14CH2FeH4SHCH2CHC2H7CH4CHCHC3H4CHCH2CH4C3H4CH2C2H4NCH2CNC2H3CHC2H4CHCHC2H12CH3CH9CH7CHC2HC2H3CHC4H3CHC2H6NCH4CH3CH3SCH2NH2FeH2CH2C2H4CNH3CH2SHC3H3NH2CH2CHCH9CHCFeC2SH3CH2C2H2CSFe2SFe2HS2C3H2C3H5CSH2NHCH5CH2C5FeHSCHCHCHCH3CHC2HSH2SHSH2CHCHFeCH5C3SHCH4CH2CH3CH8SHCSH2CH4CH2SCFeSFe2CS2HC2SHFeC2FeH3CHC2H3C2H5CH4C2HFeCNCHC2SCH4SCHCH3CH3CSHSH2CSH2CS2C3HSH4C2H3CHCNC2H7CHC2H9C3SHFeSFeS2FeS2FeSFeHS2FeSCFeS2FeSFeS3FeS4HSC4HCH3C7H4C6H4C7H3C6H6CHFeHC2HCH3CFeC2H5CH2C2HC2HCH5SHCH8CH2C2H9NH2SH4NCH2C2HCHCH17CHC4HC2HCH6CH8CH2CH8CNC4H2CH6C2HNC2SC3HC4H4CH7FeCH3CH3CH3CH3CNHCH5CNCH4CHCH2NHC2H4CS2H7CH2CHC2H6CFeH3CH5FeHFeH2SHSNHC4H11C4H3CHCHCHCH2CHCH2CHC2HCH2C2H2CH6C3H8C2H4C2H2CHCH3C5HCH5SCH3CHC2HCHSC2SHC2HCH4SH3NH3CHCH3CHCHC2H3FeSFeS2FeS2FeSFeNS2FeSHFeS2FeSFeS3FeCS3CSC4NCH2SHC6H4C6H4C6H4C6H9C3H7NC7H18CH2CH5C2H2CHSHCH3C2H7CH3C2H3SH2C2HCH2C2H3NCH7CHNC9HC2H19NH8CHC2H4CHC3H2CH4CH2CHCH2CHCH2CHFeCH7C2HCH8C2H2S2HC4HCHFeSH7CH2C2H9NC2H2C2H11SC2FeSHNHCHCHC2H4C2H2CH3C2H2CSCH2CH2CFeH3C3H3CHC2HFeCH4C2HCH3C2H3SH3C2HC4H7C2H2CHCH2CH2CHC2HSCH3FeC2HNCH2CH8C2H7CH3CH2C2HCHC2HSH2CHC2HCHCFeHSCH4S2FeS2FeS2FeSFeS3FeS3FeSCFeS2FeSFeS3C6H4C6H5C4HCH3C6H6CHCH2CH3C2SH2CHCH12FeCH3CSCH3CH2CH5CH3CHNHCH5CHFeCH5NC2H2C2HCHCH6C3H4CH2C2FeHCFeH2CH4NC9HC2H22CHC4NH4CHCSH3C2HCH2CNH9FeCHCHCHCH3CH5CH2C2H3C2H3C2H3CFeC2H4CH2CH2C3H7CNHCH5CH3C2HC3H4CH3SCH2CH3C2H2NHC2HC2FeHSHCH3S2FeS2FeS2FeSFeS3FeS3FeSCFeS2FeSFeS3C6H4C6H6C4NH2C7H4FeH3SCHCH3C2H2CNC12H28SH2CH3CHC2H3CH2SHCH3C2HC2H4C2H6FeNC4HC2H16CH3CHC2HC2H4C3HCHCHC2FeHSFeCHCH5S2H2FeH4CH3CH4C3H4CH5CNH4CH4FeHC3H2CH3CH3CS2H6CH9CHC2H2
_chemical_formula_sum              "C2592 H4608 S576 N144 Fe288"
_cell_length_a       72.5528
_cell_length_b       77.0508
_cell_length_c       50.0198
_cell_angle_alpha    87.9111
_cell_angle_beta     88.2216
_cell_angle_gamma    105.361

_space_group_name_H-M_alt    "P 1"
_space_group_IT_number       1

loop_
  _space_group_symop_operation_xyz
  'x, y, z'

loop_
  _atom_site_type_symbol
  _atom_site_label
  _atom_site_symmetry_multiplicity
  _atom_site_fract_x
  _atom_site_fract_y
  _atom_site_fract_z
  _atom_site_occupancy
  C   C1        1.0  0.32341  0.08545  0.40939  1.0000
  C   C2        1.0  0.30055  0.02583  0.35822  1.0000
  C   C3        1.0  0.30581  0.08609  0.39378  1.0000
  H   H1        1.0  0.30072  0.07366  0.38255  1.0000
  C   C4        1.0  0.30390  0.04269  0.34436  1.0000
  H   H2        1.0  0.31733  0.03405  0.99541  1.0000
  C   C5        1.0  0.02722  0.24654  0.21768  1.0000
  H   H3        1.0  0.31282  0.06975  0.04186  1.0000
  H   H4        1.0  0.30055  0.01554  0.26571  1.0000
  C   C6        1.0  0.31281  0.05980  0.00178  1.0000
  H   H5        1.0  0.29266  0.04573  0.33286  1.0000
  H   H6        1.0  0.30699  0.02545  0.29679  1.0000
  H   H7        1.0  0.30928  0.23112  0.23530  1.0000
  H   H8        1.0  0.28667  0.01622  0.35785  1.0000
  H   H9        1.0  0.32800  0.23398  0.25895  1.0000
  H   H10       1.0  0.02608  0.23692  0.99484  1.0000
  C   C7        1.0  0.31459  0.02192  0.37409  1.0000
  C   C8        1.0  0.31778  0.08607  0.47903  1.0000
  H   H11       1.0  0.03868  0.24901  0.45711  1.0000
  H   H12       1.0  0.31677  0.04765  0.04065  1.0000
  H   H13       1.0  0.31617  0.03088  0.43483  1.0000
  H   H14       1.0  0.30488  0.06549  0.43755  1.0000
  S   S1        1.0  0.32403  0.07733  0.32963  1.0000
  H   H15       1.0  0.29710  0.05386  0.00349  1.0000
  H   H16       1.0  0.31602  0.07373  0.99298  1.0000
  H   H17       1.0  0.30952  0.09782  0.37916  1.0000
  H   H18       1.0  0.31817  0.05685  0.41395  1.0000
  C   C9        1.0  0.30886  0.01460  0.28386  1.0000
  H   H19       1.0  0.03159  0.23766  0.23284  1.0000
  C   C10       1.0  0.32409  0.23014  0.23825  1.0000
  C   C11       1.0  0.31940  0.06805  0.42775  1.0000
  H   H20       1.0  0.29407  0.08751  0.40759  1.0000
  H   H21       1.0  0.03389  0.24524  0.19782  1.0000
  H   H22       1.0  0.01143  0.24196  0.21636  1.0000
  H   H23       1.0  0.02334  0.25375  0.48360  1.0000
  C   C12       1.0  0.32000  0.06117  0.03026  1.0000
  H   H24       1.0  0.31906  0.05210  0.27794  1.0000
  H   H25       1.0  0.30634  0.01504  0.47927  1.0000
  H   H26       1.0  0.30891  0.08987  0.46332  1.0000
  H   H27       1.0  0.31267  0.04876  0.47353  1.0000
  N   N1        1.0  0.32971  0.01726  0.27585  1.0000
  C   C13       1.0  0.32679  0.03275  0.45063  1.0000
  C   C14       1.0  0.32077  0.01624  0.47002  1.0000
  C   C15       1.0  0.32743  0.05032  0.46516  1.0000
  C   C16       1.0  0.32133  0.05591  0.34610  1.0000
  H   H28       1.0  0.27416  0.00633  0.31272  1.0000
  H   H29       1.0  0.00925  0.25001  0.98790  1.0000
  H   H30       1.0  0.32896  0.03537  0.24185  1.0000
  H   H31       1.0  0.32739  0.09787  0.42076  1.0000
  H   H32       1.0  0.32437  0.21593  0.23587  1.0000
  H   H33       1.0  0.29586  0.03062  0.93252  1.0000
  C   C17       1.0  0.32573  0.06544  0.94268  1.0000
  H   H34       1.0  0.31078  0.03435  0.78055  1.0000
  H   H35       1.0  0.30037  0.05291  0.75189  1.0000
  C   C18       1.0  0.32610  0.08506  0.90036  1.0000
  H   H36       1.0  0.25415  0.04962  0.94587  1.0000
  C   C19       1.0  0.30533  0.05124  0.84824  1.0000
  H   H37       1.0  0.28765  0.05929  0.92979  1.0000
  H   H38       1.0  0.30792  0.25373  0.55678  1.0000
  C   C20       1.0  0.31409  0.07472  0.72415  1.0000
  H   H39       1.0  0.32209  0.12568  0.76296  1.0000
  H   H40       1.0  0.04503  0.24786  0.49159  1.0000
  H   H41       1.0  0.32398  0.06509  0.76043  1.0000
  C   C21       1.0  0.32316  0.04500  0.72953  1.0000
  H   H42       1.0  0.31256  0.08834  0.90623  1.0000
  C   C22       1.0  0.02197  0.24611  0.97992  1.0000
  C   C23       1.0  0.29663  0.03540  0.86352  1.0000
  H   H43       1.0  0.32092  0.12636  0.72696  1.0000
  H   H44       1.0  0.29137  0.02782  0.96750  1.0000
  C   C24       1.0  0.31471  0.02395  0.76835  1.0000
  H   H45       1.0  0.28166  0.03259  0.86973  1.0000
  H   H46       1.0  0.26108  0.03106  0.93145  1.0000
  C   C25       1.0  0.29758  0.03821  0.95127  1.0000
  H   H47       1.0  0.30150  0.01699  0.75813  1.0000
  C   C26       1.0  0.32197  0.10122  0.49864  1.0000
  C   C27       1.0  0.28429  0.05098  0.94878  1.0000
  H   H48       1.0  0.30835  0.10323  0.50690  1.0000
  C   C28       1.0  0.30691  0.02295  0.87017  1.0000
  C   C29       1.0  0.26332  0.04024  0.94840  1.0000
  H   H49       1.0  0.25883  0.03217  0.96749  1.0000
  H   H50       1.0  0.32756  0.03372  0.92198  1.0000
  H   H51       1.0  0.32098  0.00883  0.72500  1.0000
  H   H52       1.0  0.01798  0.23874  0.96138  1.0000
  H   H53       1.0  0.29690  0.06033  0.84243  1.0000
  H   H54       1.0  0.30771  0.08430  0.73473  1.0000
  N   N2        1.0  0.31851  0.04677  0.95574  1.0000
  H   H55       1.0  0.31342  0.05654  0.90412  1.0000
  C   C30       1.0  0.31511  0.05927  0.74361  1.0000
  H   H56       1.0  0.28577  0.06028  0.96536  1.0000
  H   H57       1.0  0.30920  0.07374  0.49017  1.0000
  C   C31       1.0  0.32633  0.01568  0.95617  1.0000
  H   H58       1.0  0.31728  0.07452  0.94991  1.0000
  H   H59       1.0  0.31150  0.03696  0.71745  1.0000
  C   C32       1.0  0.32232  0.04766  0.98525  1.0000
  C   C33       1.0  0.32601  0.06635  0.91161  1.0000
  H   H60       1.0  0.30910  0.23390  0.51938  1.0000
  C   C34       1.0  0.32636  0.02684  0.86204  1.0000
  H   H61       1.0  0.30505  0.06950  0.70715  1.0000
  H   H62       1.0  0.30166  0.25077  0.49938  1.0000
  H   H63       1.0  0.29684  0.01314  0.81761  1.0000
  C   C35       1.0  0.31921  0.01033  0.78914  1.0000
  C   C36       1.0  0.31418  0.24642  0.50648  1.0000
  H   H64       1.0  0.32740  0.08544  0.87814  1.0000
  C   C37       1.0  0.32471  0.05536  0.84026  1.0000
  H   H65       1.0  0.32220  0.24337  0.48876  1.0000
  N   N3        1.0  0.33058  0.03264  0.74788  1.0000
  H   H66       1.0  0.32864  0.08214  0.71630  1.0000
  H   H67       1.0  0.33122  0.01711  0.48600  1.0000
  H   H68       1.0  0.31079  0.00883  0.95776  1.0000
  C   C38       1.0  0.33074  0.12775  0.74382  1.0000
  H   H69       1.0  0.33034  0.11406  0.48840  1.0000
  H   H70       1.0  0.32570  0.25298  0.60990  1.0000
  H   H71       1.0  0.33016  0.09782  0.51556  1.0000
  C   C39       1.0  0.33017  0.03515  0.94373  1.0000
  H   H72       1.0  0.32816  0.24183  0.57933  1.0000
  Fe  Fe1       1.0  0.07418  0.46057  0.26395  1.0000
  S   S2        1.0  0.04729  0.43838  0.26503  1.0000
  S   S3        1.0  0.10244  0.45448  0.25582  1.0000
  Fe  Fe2       1.0  0.05232  0.48803  0.27620  1.0000
  H   H73       1.0  0.24627  0.38920  0.22505  1.0000
  S   S4        1.0  0.02819  0.43372  0.34003  1.0000
  Fe  Fe3       1.0  0.03822  0.45070  0.30146  1.0000
  H   H74       1.0  0.02478  0.49603  0.13896  1.0000
  C   C40       1.0  0.05554  0.27481  0.36777  1.0000
  S   S5        1.0  0.06630  0.47143  0.30222  1.0000
  S   S6        1.0  0.06333  0.47949  0.23768  1.0000
  S   S7        1.0  0.05537  0.45952  0.04893  1.0000
  H   H75       1.0  0.04448  0.35187  0.12791  1.0000
  Fe  Fe4       1.0  0.03896  0.43683  0.02465  1.0000
  S   S8        1.0  0.03914  0.40738  0.03174  1.0000
  H   H76       1.0  0.07706  0.30486  0.31748  1.0000
  H   H77       1.0  0.12412  0.40094  0.31437  1.0000
  Fe  Fe5       1.0  0.16069  0.37790  0.15569  1.0000
  S   S9        1.0  0.14820  0.34800  0.15648  1.0000
  S   S10       1.0  0.19259  0.38941  0.15814  1.0000
  Fe  Fe6       1.0  0.12110  0.38478  0.15922  1.0000
  S   S11       1.0  0.10646  0.35526  0.16003  1.0000
  S   S12       1.0  0.09984  0.40132  0.16175  1.0000
  Fe  Fe7       1.0  0.12856  0.35266  0.18927  1.0000
  S   S13       1.0  0.12119  0.33541  0.22805  1.0000
  Fe  Fe8       1.0  0.12782  0.35438  0.12714  1.0000
  S   S14       1.0  0.11905  0.33757  0.09113  1.0000
  S   S15       1.0  0.14205  0.38235  0.18994  1.0000
  S   S16       1.0  0.14137  0.38421  0.12449  1.0000
  Fe  Fe9       1.0  0.27319  0.34272  0.16006  1.0000
  S   S17       1.0  0.28827  0.37204  0.16090  1.0000
  S   S18       1.0  0.24161  0.33255  0.15341  1.0000
  C   C41       1.0  0.01854  0.38941  0.04046  1.0000
  H   H78       1.0  0.07450  0.31384  0.15392  1.0000
  H   H79       1.0  0.03670  0.36615  0.21183  1.0000
  S   S19       1.0  0.28758  0.33454  0.19570  1.0000
  S   S20       1.0  0.29400  0.33671  0.13004  1.0000
  H   H80       1.0  0.19939  0.31024  0.25575  1.0000
  H   H81       1.0  0.12667  0.47909  0.05036  1.0000
  H   H82       1.0  0.03360  0.39919  0.25052  1.0000
  C   C42       1.0  0.06714  0.28970  0.04575  1.0000
  C   C43       1.0  0.25756  0.37643  0.10091  1.0000
  H   H83       1.0  0.00649  0.49669  0.37474  1.0000
  H   H84       1.0  0.16996  0.29056  0.18100  1.0000
  Fe  Fe10      1.0  0.30937  0.38242  0.41422  1.0000
  S   S21       1.0  0.28148  0.39062  0.41912  1.0000
  S   S22       1.0  0.30853  0.35316  0.41511  1.0000
  Fe  Fe11      1.0  0.14742  0.35912  0.37285  1.0000
  S   S23       1.0  0.15130  0.33135  0.37097  1.0000
  S   S24       1.0  0.14776  0.37557  0.33455  1.0000
  Fe  Fe12      1.0  0.14656  0.35808  0.43432  1.0000
  S   S25       1.0  0.15016  0.33005  0.43658  1.0000
  C   C44       1.0  0.08761  0.37639  0.33862  1.0000
  Fe  Fe13      1.0  0.17249  0.34010  0.40315  1.0000
  S   S26       1.0  0.20147  0.33394  0.40085  1.0000
  Fe  Fe14      1.0  0.12860  0.32447  0.40409  1.0000
  H   H85       1.0  0.10589  0.28147  0.28056  1.0000
  S   S27       1.0  0.17006  0.36842  0.40267  1.0000
  S   S28       1.0  0.12351  0.35195  0.40423  1.0000
  H   H86       1.0  0.18308  0.36197  0.26640  1.0000
  H   H87       1.0  0.26355  0.37690  0.23240  1.0000
  Fe  Fe15      1.0  0.01050  0.27024  0.31948  1.0000
  C   C45       1.0  0.27079  0.31433  0.06975  1.0000
  H   H88       1.0  0.11443  0.28097  0.99792  1.0000
  H   H89       1.0  0.29668  0.34728  0.47556  1.0000
  C   C46       1.0  0.17362  0.31807  0.19339  1.0000
  C   C47       1.0  0.16364  0.30203  0.17731  1.0000
  C   C48       1.0  0.08580  0.29430  0.38183  1.0000
  H   H90       1.0  0.23826  0.36563  0.23458  1.0000
  H   H91       1.0  0.20827  0.33296  0.26363  1.0000
  H   H92       1.0  0.03408  0.39788  0.28655  1.0000
  C   C49       1.0  0.06943  0.27989  0.38711  1.0000
  H   H93       1.0  0.06291  0.36347  0.99612  1.0000
  H   H94       1.0  0.06768  0.27237  0.40611  1.0000
  C   C50       1.0  0.25919  0.37477  0.41448  1.0000
  C   C51       1.0  0.24224  0.38034  0.41536  1.0000
  C   C52       1.0  0.22439  0.36804  0.41138  1.0000
  C   C53       1.0  0.22335  0.35001  0.40654  1.0000
  C   C54       1.0  0.24029  0.34448  0.40582  1.0000
  C   C55       1.0  0.25805  0.35676  0.40974  1.0000
  H   H95       1.0  0.24289  0.39425  0.41896  1.0000
  H   H96       1.0  0.21148  0.37252  0.41202  1.0000
  H   H97       1.0  0.23967  0.33059  0.40209  1.0000
  H   H98       1.0  0.27082  0.35220  0.40892  1.0000
  C   C56       1.0  0.18368  0.34619  0.23067  1.0000
  H   H99       1.0  0.01711  0.31041  0.42015  1.0000
  H   H100      1.0  0.33077  0.27994  0.99637  1.0000
  H   H101      1.0  0.07265  0.37709  0.34190  1.0000
  H   H102      1.0  0.09616  0.48801  0.39527  1.0000
  H   H103      1.0  0.05542  0.41954  0.43480  1.0000
  H   H104      1.0  0.17375  0.30024  0.22804  1.0000
  H   H105      1.0  0.07398  0.29384  0.08742  1.0000
  H   H106      1.0  0.16551  0.30598  0.15560  1.0000
  H   H107      1.0  0.16921  0.34757  0.22579  1.0000
  H   H108      1.0  0.00412  0.34122  0.10480  1.0000
  C   C57       1.0  0.20626  0.37364  0.15660  1.0000
  C   C58       1.0  0.19908  0.35699  0.14530  1.0000
  C   C59       1.0  0.21001  0.34446  0.14457  1.0000
  C   C60       1.0  0.22825  0.34851  0.15504  1.0000
  C   C61       1.0  0.23546  0.36514  0.16644  1.0000
  C   C62       1.0  0.22458  0.37775  0.16693  1.0000
  H   H109      1.0  0.18534  0.35395  0.13636  1.0000
  H   H110      1.0  0.20438  0.33166  0.13560  1.0000
  H   H111      1.0  0.24935  0.36829  0.17499  1.0000
  H   H112      1.0  0.23030  0.39066  0.17553  1.0000
  C   C63       1.0  0.12305  0.34834  0.05881  1.0000
  C   C64       1.0  0.12774  0.36712  0.05512  1.0000
  C   C65       1.0  0.13011  0.37523  0.02913  1.0000
  C   C66       1.0  0.12797  0.36466  0.00660  1.0000
  C   C67       1.0  0.12338  0.34589  0.01025  1.0000
  C   C68       1.0  0.12091  0.33779  0.03627  1.0000
  H   H113      1.0  0.12921  0.37541  0.07223  1.0000
  H   H114      1.0  0.13360  0.38975  0.02649  1.0000
  S   S29       1.0  0.03799  0.48663  0.01040  1.0000
  H   H115      1.0  0.11754  0.32330  0.03906  1.0000
  C   C69       1.0  0.12866  0.34640  0.25790  1.0000
  C   C70       1.0  0.14170  0.36340  0.25696  1.0000
  C   C71       1.0  0.14750  0.37215  0.28056  1.0000
  C   C72       1.0  0.14094  0.36366  0.30553  1.0000
  C   C73       1.0  0.12829  0.34639  0.30676  1.0000
  C   C74       1.0  0.12192  0.33790  0.28299  1.0000
  H   H116      1.0  0.14767  0.36981  0.23813  1.0000
  H   H117      1.0  0.15731  0.38548  0.27944  1.0000
  H   H118      1.0  0.12302  0.33980  0.32601  1.0000
  H   H119      1.0  0.11177  0.32478  0.28422  1.0000
  N   N4        1.0  0.00711  0.35729  0.13981  1.0000
  H   H120      1.0  0.20673  0.38150  0.21697  1.0000
  C   C75       1.0  0.02052  0.37180  0.04355  1.0000
  S   S30       1.0  0.10275  0.30002  0.40707  1.0000
  H   H121      1.0  0.03445  0.36946  0.04043  1.0000
  C   C76       1.0  0.10144  0.43912  0.23040  1.0000
  C   C77       1.0  0.08533  0.43417  0.21488  1.0000
  C   C78       1.0  0.08475  0.42205  0.19448  1.0000
  C   C79       1.0  0.10029  0.41487  0.18939  1.0000
  C   C80       1.0  0.11632  0.41966  0.20507  1.0000
  C   C81       1.0  0.11690  0.43180  0.22553  1.0000
  H   H122      1.0  0.07342  0.43991  0.21824  1.0000
  H   H123      1.0  0.07232  0.41848  0.18237  1.0000
  H   H124      1.0  0.12849  0.41441  0.20102  1.0000
  H   H125      1.0  0.12942  0.43564  0.23744  1.0000
  H   H126      1.0  0.10639  0.48766  0.10104  1.0000
  H   H127      1.0  0.02835  0.27443  0.21034  1.0000
  H   H128      1.0  0.18240  0.38171  0.22532  1.0000
  C   C82       1.0  0.07148  0.48869  0.37180  1.0000
  H   H129      1.0  0.20124  0.39116  0.24744  1.0000
  C   C83       1.0  0.06243  0.30017  0.02097  1.0000
  H   H130      1.0  0.08337  0.35995  0.30428  1.0000
  C   C84       1.0  0.02531  0.48214  0.14102  1.0000
  H   H131      1.0  0.09662  0.41628  0.28037  1.0000
  H   H132      1.0  0.22458  0.33661  0.05797  1.0000
  Fe  Fe16      1.0  0.32970  0.36097  0.38004  1.0000
  Fe  Fe17      1.0  0.06371  0.47616  0.01038  1.0000
  N   N5        1.0  0.08846  0.38749  0.28897  1.0000
  H   H133      1.0  0.08587  0.37552  0.20907  1.0000
  C   C85       1.0  0.32146  0.35890  0.01307  1.0000
  N   N6        1.0  0.09608  0.44983  0.11775  1.0000
  C   C86       1.0  0.08253  0.45791  0.13379  1.0000
  C   C87       1.0  0.08572  0.43046  0.11340  1.0000
  C   C88       1.0  0.10127  0.45947  0.09071  1.0000
  C   C89       1.0  0.06680  0.42735  0.09840  1.0000
  C   C90       1.0  0.09140  0.47244  0.15381  1.0000
  H   H134      1.0  0.31566  0.28822  0.24290  1.0000
  C   C91       1.0  0.05598  0.40741  0.10004  1.0000
  H   H135      1.0  0.07351  0.46365  0.12019  1.0000
  H   H136      1.0  0.07209  0.44726  0.14641  1.0000
  H   H137      1.0  0.08235  0.42289  0.13306  1.0000
  H   H138      1.0  0.09478  0.42368  0.10164  1.0000
  H   H139      1.0  0.10834  0.45166  0.07739  1.0000
  H   H140      1.0  0.08812  0.46016  0.08044  1.0000
  H   H141      1.0  0.06993  0.43146  0.07689  1.0000
  H   H142      1.0  0.05716  0.43497  0.10682  1.0000
  C   C92       1.0  0.06894  0.31179  0.45991  1.0000
  H   H143      1.0  0.02185  0.41179  0.41945  1.0000
  H   H144      1.0  0.07770  0.30483  0.44781  1.0000
  C   C93       1.0  0.31134  0.35069  0.26619  1.0000
  C   C94       1.0  0.09029  0.36073  0.35635  1.0000
  H   H145      1.0  0.06466  0.39923  0.09051  1.0000
  H   H146      1.0  0.05238  0.40258  0.12125  1.0000
  H   H147      1.0  0.04250  0.40553  0.08930  1.0000
  N   N7        1.0  0.25377  0.37271  0.31579  1.0000
  C   C95       1.0  0.25495  0.35610  0.33178  1.0000
  C   C96       1.0  0.23642  0.37819  0.32601  1.0000
  C   C97       1.0  0.25249  0.36849  0.28654  1.0000
  C   C98       1.0  0.27131  0.38814  0.31879  1.0000
  C   C99       1.0  0.27714  0.39264  0.34783  1.0000
  C   C100      1.0  0.27299  0.34943  0.32608  1.0000
  C   C101      1.0  0.24820  0.38319  0.26748  1.0000
  C   C102      1.0  0.21680  0.36429  0.32298  1.0000
  C   C103      1.0  0.20024  0.37204  0.33116  1.0000
  C   C104      1.0  0.29454  0.40900  0.34774  1.0000
  C   C105      1.0  0.27276  0.33295  0.34417  1.0000
  C   C106      1.0  0.24912  0.37834  0.23817  1.0000
  H   H148      1.0  0.24251  0.34457  0.32803  1.0000
  H   H149      1.0  0.25384  0.35819  0.35359  1.0000
  H   H150      1.0  0.23732  0.38056  0.34781  1.0000
  H   H151      1.0  0.23597  0.39133  0.31643  1.0000
  H   H152      1.0  0.24158  0.35557  0.28378  1.0000
  H   H153      1.0  0.26623  0.36628  0.27881  1.0000
  H   H154      1.0  0.28393  0.38577  0.30774  1.0000
  H   H155      1.0  0.26926  0.40075  0.30936  1.0000
  H   H156      1.0  0.28098  0.38125  0.35835  1.0000
  H   H157      1.0  0.26544  0.39592  0.35965  1.0000
  H   H158      1.0  0.27370  0.34550  0.30503  1.0000
  H   H159      1.0  0.28622  0.35996  0.32980  1.0000
  H   H160      1.0  0.25880  0.39637  0.26925  1.0000
  H   H161      1.0  0.23373  0.38488  0.27203  1.0000
  H   H162      1.0  0.21477  0.36013  0.30210  1.0000
  H   H163      1.0  0.21558  0.35209  0.33618  1.0000
  H   H164      1.0  0.20131  0.37600  0.35232  1.0000
  H   H165      1.0  0.20014  0.38396  0.31802  1.0000
  H   H166      1.0  0.18641  0.36171  0.32939  1.0000
  H   H167      1.0  0.29118  0.42107  0.33852  1.0000
  H   H168      1.0  0.29868  0.41193  0.36862  1.0000
  H   H169      1.0  0.30688  0.40633  0.33648  1.0000
  H   H170      1.0  0.28533  0.32790  0.33892  1.0000
  H   H171      1.0  0.27356  0.33656  0.36548  1.0000
  H   H172      1.0  0.25960  0.32195  0.34164  1.0000
  C   C107      1.0  0.30525  0.41702  0.47680  1.0000
  H   H173      1.0  0.15551  0.29630  0.26933  1.0000
  C   C108      1.0  0.11183  0.28699  0.26032  1.0000
  H   H174      1.0  0.06468  0.27576  0.46896  1.0000
  C   C109      1.0  0.11402  0.47904  0.09059  1.0000
  H   H175      1.0  0.04290  0.34500  0.21252  1.0000
  C   C110      1.0  0.10316  0.44946  0.00048  1.0000
  H   H176      1.0  0.09234  0.41012  0.31474  1.0000
  H   H177      1.0  0.01917  0.34084  0.00295  1.0000
  C   C111      1.0  0.08219  0.39026  0.00473  1.0000
  Fe  Fe18      1.0  0.30415  0.36356  0.19478  1.0000
  H   H178      1.0  0.04429  0.28001  0.43402  1.0000
  H   H179      1.0  0.02931  0.33798  0.16859  1.0000
  H   H180      1.0  0.02749  0.41763  0.46597  1.0000
  C   C112      1.0  0.31961  0.38030  0.28423  1.0000
  H   H181      1.0  0.03949  0.44876  0.43377  1.0000
  H   H182      1.0  0.04883  0.30377  0.02591  1.0000
  C   C113      1.0  0.07676  0.36084  0.03247  1.0000
  C   C114      1.0  0.04796  0.31251  0.42297  1.0000
  C   C115      1.0  0.23077  0.34928  0.06823  1.0000
  H   H183      1.0  0.09193  0.45012  0.01573  1.0000
  H   H184      1.0  0.13052  0.49527  0.22186  1.0000
  H   H185      1.0  0.07305  0.39378  0.02088  1.0000
  H   H186      1.0  0.01558  0.37235  0.17511  1.0000
  H   H187      1.0  0.28360  0.37884  0.47311  1.0000
  H   H188      1.0  0.05419  0.39619  0.44343  1.0000
  H   H189      1.0  0.06272  0.39146  0.30791  1.0000
  C   C116      1.0  0.04451  0.27356  0.99898  1.0000
  S   S31       1.0  0.00654  0.46133  0.45195  1.0000
  H   H190      1.0  0.05428  0.36243  0.18774  1.0000
  C   C117      1.0  0.33125  0.29325  0.23795  1.0000
  C   C118      1.0  0.08472  0.47860  0.38463  1.0000
  C   C119      1.0  0.07891  0.33224  0.45685  1.0000
  H   H191      1.0  0.01572  0.30853  0.37146  1.0000
  H   H192      1.0  0.09757  0.46628  0.17060  1.0000
  S   S32       1.0  0.32488  0.30950  0.16910  1.0000
  H   H193      1.0  0.03230  0.48399  0.36688  1.0000
  C   C120      1.0  0.01322  0.34396  0.12251  1.0000
  C   C121      1.0  0.12064  0.41019  0.29902  1.0000
  H   H194      1.0  0.12166  0.33765  0.99305  1.0000
  S   S33       1.0  0.01186  0.44560  0.02546  1.0000
  H   H195      1.0  0.09154  0.47231  0.36883  1.0000
  H   H196      1.0  0.18728  0.36106  0.06747  1.0000
  H   H197      1.0  0.06489  0.36326  0.04504  1.0000
  H   H198      1.0  0.07470  0.34608  0.03147  1.0000
  H   H199      1.0  0.09040  0.36659  0.04223  1.0000
  C   C122      1.0  0.21559  0.32653  0.22346  1.0000
  C   C123      1.0  0.19268  0.36191  0.24870  1.0000
  C   C124      1.0  0.23510  0.32498  0.23231  1.0000
  C   C125      1.0  0.19592  0.38014  0.23364  1.0000
  H   H200      1.0  0.19203  0.34876  0.21128  1.0000
  H   H201      1.0  0.21783  0.33975  0.21264  1.0000
  H   H202      1.0  0.21054  0.31558  0.20949  1.0000
  H   H203      1.0  0.20665  0.36085  0.25565  1.0000
  H   H204      1.0  0.16731  0.32925  0.18819  1.0000
  H   H205      1.0  0.18880  0.32236  0.18658  1.0000
  H   H206      1.0  0.14808  0.29775  0.18271  1.0000
  H   H207      1.0  0.24502  0.32662  0.21447  1.0000
  H   H208      1.0  0.24139  0.33560  0.24627  1.0000
  H   H209      1.0  0.23385  0.31154  0.24215  1.0000
  Fe  Fe19      1.0  0.02887  0.46907  0.04810  1.0000
  C   C126      1.0  0.04120  0.28565  0.45331  1.0000
  H   H210      1.0  0.09975  0.30643  0.00619  1.0000
  H   H211      1.0  0.03114  0.37772  0.26773  1.0000
  H   H212      1.0  0.15508  0.31133  0.22807  1.0000
  H   H213      1.0  0.05718  0.26450  0.24748  1.0000
  C   C127      1.0  0.03841  0.39235  0.26786  1.0000
  C   C128      1.0  0.17077  0.31353  0.22397  1.0000
  N   N8        1.0  0.06068  0.29058  0.99500  1.0000
  H   H214      1.0  0.08267  0.31367  0.06572  1.0000
  H   H215      1.0  0.03561  0.29876  0.23802  1.0000
  C   C129      1.0  0.20120  0.32423  0.24765  1.0000
  H   H216      1.0  0.25310  0.38541  0.06049  1.0000
  Fe  Fe20      1.0  0.03579  0.45762  0.23994  1.0000
  H   H217      1.0  0.11731  0.45648  0.00801  1.0000
  H   H218      1.0  0.13363  0.44803  0.09985  1.0000
  H   H219      1.0  0.14485  0.43172  0.30972  1.0000
  H   H220      1.0  0.07651  0.46778  0.39902  1.0000
  H   H221      1.0  0.03368  0.32841  0.37983  1.0000
  H   H222      1.0  0.09714  0.39446  0.01146  1.0000
  C   C130      1.0  0.03062  0.44929  0.41699  1.0000
  H   H223      1.0  0.01175  0.34141  0.19246  1.0000
  C   C131      1.0  0.03304  0.26612  0.22577  1.0000
  H   H224      1.0  0.08025  0.28520  0.04183  1.0000
  H   H225      1.0  0.03553  0.31750  0.29072  1.0000
  N   N9        1.0  0.18195  0.32739  0.24227  1.0000
  H   H226      1.0  0.07805  0.31707  0.21119  1.0000
  C   C132      1.0  0.32055  0.34814  0.03661  1.0000
  C   C133      1.0  0.02581  0.47421  0.16677  1.0000
  C   C134      1.0  0.12853  0.44135  0.11973  1.0000
  H   H227      1.0  0.12251  0.42672  0.11724  1.0000
  C   C135      1.0  0.07852  0.28507  0.98711  1.0000
  Fe  Fe21      1.0  0.31023  0.36559  0.13302  1.0000
  H   H228      1.0  0.02212  0.38895  0.42313  1.0000
  C   C136      1.0  0.06102  0.49703  0.39345  1.0000
  H   H229      1.0  0.11119  0.38419  0.26215  1.0000
  C   C137      1.0  0.02404  0.44409  0.36982  1.0000
  H   H230      1.0  0.28167  0.35492  0.02207  1.0000
  H   H231      1.0  0.02398  0.29101  0.40883  1.0000
  H   H232      1.0  0.32223  0.39849  0.04191  1.0000
  N   N10       1.0  0.25150  0.35696  0.05928  1.0000
  C   C138      1.0  0.03554  0.44372  0.39180  1.0000
  C   C139      1.0  0.11363  0.44983  0.13326  1.0000
  H   H233      1.0  0.06915  0.48666  0.15035  1.0000
  H   H234      1.0  0.02497  0.44616  0.10349  1.0000
  H   H235      1.0  0.28626  0.32123  0.06657  1.0000
  H   H236      1.0  0.17907  0.33424  0.28370  1.0000
  C   C140      1.0  0.06013  0.39558  0.26563  1.0000
  H   H237      1.0  0.10922  0.44259  0.15298  1.0000
  H   H238      1.0  0.08010  0.29721  0.19662  1.0000
  H   H239      1.0  0.15748  0.32980  0.26615  1.0000
  H   H240      1.0  0.04861  0.29023  0.17915  1.0000
  H   H241      1.0  0.15624  0.43677  0.12704  1.0000
  H   H242      1.0  0.02527  0.43198  0.14890  1.0000
  H   H243      1.0  0.26786  0.30114  0.06021  1.0000
  C   C141      1.0  0.09087  0.36528  0.22083  1.0000
  C   C142      1.0  0.17074  0.32535  0.26874  1.0000
  H   H244      1.0  0.09737  0.38896  0.34543  1.0000
  C   C143      1.0  0.32024  0.35545  0.06195  1.0000
  H   H245      1.0  0.32114  0.39464  0.28186  1.0000
  S   S34       1.0  0.02354  0.46774  0.27681  1.0000
  C   C144      1.0  0.06724  0.38588  0.28934  1.0000
  H   H246      1.0  0.05178  0.32748  0.42115  1.0000
  C   C145      1.0  0.15321  0.30591  0.30855  1.0000
  C   C146      1.0  0.09587  0.28535  0.24056  1.0000
  C   C147      1.0  0.02982  0.31345  0.38054  1.0000
  C   C148      1.0  0.05406  0.30367  0.18759  1.0000
  C   C149      1.0  0.32192  0.38444  0.04050  1.0000
  C   C150      1.0  0.02481  0.47205  0.11805  1.0000
  H   H247      1.0  0.11999  0.30128  0.26159  1.0000
  H   H248      1.0  0.06352  0.39068  0.24600  1.0000
  H   H249      1.0  0.23238  0.39346  0.47402  1.0000
  C   C151      1.0  0.08822  0.30359  0.35684  1.0000
  H   H250      1.0  0.12797  0.40874  0.27977  1.0000
  H   H251      1.0  0.10550  0.35129  0.46623  1.0000
  N   N11       1.0  0.06318  0.29261  0.23387  1.0000
  C   C152      1.0  0.06977  0.30303  0.20761  1.0000
  H   H252      1.0  0.10262  0.29181  0.22120  1.0000
  H   H253      1.0  0.12151  0.46367  0.13810  1.0000
  H   H254      1.0  0.04396  0.29169  0.26781  1.0000
  H   H255      1.0  0.06689  0.41028  0.26541  1.0000
  C   C153      1.0  0.32408  0.37300  0.30855  1.0000
  C   C154      1.0  0.02850  0.30592  0.40942  1.0000
  H   H256      1.0  0.03725  0.36228  0.09874  1.0000
  H   H257      1.0  0.31968  0.34701  0.07987  1.0000
  H   H258      1.0  0.31961  0.30554  0.01686  1.0000
  H   H259      1.0  0.17727  0.30126  0.28725  1.0000
  C   C155      1.0  0.04885  0.29999  0.24911  1.0000
  H   H260      1.0  0.03055  0.33366  0.07599  1.0000
  H   H261      1.0  0.05745  0.30582  0.07534  1.0000
  H   H262      1.0  0.21830  0.36661  0.04191  1.0000
  H   H263      1.0  0.22100  0.37358  0.07574  1.0000
  H   H264      1.0  0.04463  0.33998  0.27639  1.0000
  H   H265      1.0  0.07574  0.28891  0.27164  1.0000
  C   C156      1.0  0.16464  0.30610  0.28233  1.0000
  C   C157      1.0  0.10257  0.42985  0.99535  1.0000
  H   H266      1.0  0.06776  0.32181  0.27072  1.0000
  H   H267      1.0  0.26729  0.31181  0.09158  1.0000
  C   C158      1.0  0.08043  0.29448  0.25087  1.0000
  H   H268      1.0  0.27521  0.38020  0.06487  1.0000
  H   H269      1.0  0.08805  0.30889  0.25276  1.0000
  H   H270      1.0  0.19455  0.34590  0.09055  1.0000
  C   C159      1.0  0.05576  0.31986  0.25696  1.0000
  H   H271      1.0  0.27250  0.34627  0.46658  1.0000
  H   H272      1.0  0.00842  0.39449  0.15176  1.0000
  H   H273      1.0  0.04062  0.30888  0.36850  1.0000
  H   H274      1.0  0.12780  0.47978  0.10008  1.0000
  H   H275      1.0  0.09542  0.39510  0.24706  1.0000
  H   H276      1.0  0.07686  0.49636  0.07668  1.0000
  C   C160      1.0  0.19644  0.35164  0.06968  1.0000
  H   H277      1.0  0.02558  0.48194  0.18433  1.0000
  C   C161      1.0  0.21736  0.36169  0.06312  1.0000
  C   C162      1.0  0.02547  0.45599  0.16978  1.0000
  H   H278      1.0  0.10286  0.48355  0.14424  1.0000
  C   C163      1.0  0.02481  0.34827  0.18011  1.0000
  S   S35       1.0  0.30784  0.37910  0.23281  1.0000
  H   H279      1.0  0.14880  0.29203  0.31783  1.0000
  C   C164      1.0  0.32473  0.43089  0.47404  1.0000
  C   C165      1.0  0.02541  0.45408  0.12099  1.0000
  H   H280      1.0  0.05885  0.37149  0.29034  1.0000
  H   H281      1.0  0.10082  0.31464  0.35249  1.0000
  H   H282      1.0  0.32747  0.43626  0.45296  1.0000
  C   C166      1.0  0.00459  0.35713  0.05046  1.0000
  C   C167      1.0  0.06204  0.31706  0.16408  1.0000
  H   H283      1.0  0.00021  0.26239  0.18356  1.0000
  C   C168      1.0  0.05824  0.28367  0.34247  1.0000
  H   H284      1.0  0.02110  0.38049  0.11413  1.0000
  H   H285      1.0  0.26001  0.34182  0.09176  1.0000
  C   C169      1.0  0.07467  0.29808  0.33708  1.0000
  H   H286      1.0  0.16212  0.31488  0.32281  1.0000
  H   H287      1.0  0.04802  0.43865  0.38950  1.0000
  C   C170      1.0  0.00037  0.39218  0.04439  1.0000
  C   C171      1.0  0.03553  0.31432  0.46840  1.0000
  H   H288      1.0  0.02697  0.32377  0.25910  1.0000
  H   H289      1.0  0.24237  0.37234  0.10807  1.0000
  H   H290      1.0  0.08018  0.34783  0.35125  1.0000
  C   C172      1.0  0.02553  0.44606  0.14675  1.0000
  H   H291      1.0  0.30537  0.40635  0.46273  1.0000
  H   H292      1.0  0.31497  0.27632  0.04216  1.0000
  H   H293      1.0  0.04198  0.30784  0.19692  1.0000
  C   C173      1.0  0.03969  0.32560  0.27161  1.0000
  S   S36       1.0  0.02348  0.44475  0.20177  1.0000
  H   H294      1.0  0.06038  0.32888  0.23891  1.0000
  H   H295      1.0  0.26517  0.36762  0.11135  1.0000
  H   H296      1.0  0.03554  0.32200  0.10580  1.0000
  C   C174      1.0  0.07714  0.36932  0.00426  1.0000
  C   C175      1.0  0.05096  0.40857  0.45062  1.0000
  S   S37       1.0  0.14514  0.37502  0.47025  1.0000
  C   C176      1.0  0.04956  0.27509  0.47470  1.0000
  H   H297      1.0  0.08296  0.49111  0.17984  1.0000
  C   C177      1.0  0.11867  0.48697  0.06199  1.0000
  C   C178      1.0  0.07049  0.30153  0.06997  1.0000
  H   H298      1.0  0.10780  0.32910  0.45973  1.0000
  C   C179      1.0  0.25859  0.32571  0.05742  1.0000
  H   H299      1.0  0.06647  0.33100  0.17113  1.0000
  H   H300      1.0  0.05435  0.33908  0.08829  1.0000
  H   H301      1.0  0.24337  0.31819  0.06115  1.0000
  S   S38       1.0  0.02259  0.48207  0.08620  1.0000
  H   H302      1.0  0.15328  0.45759  0.13946  1.0000
  H   H303      1.0  0.05689  0.32832  0.98991  1.0000
  H   H304      1.0  0.02595  0.39448  0.47437  1.0000
  C   C180      1.0  0.00280  0.45588  0.39831  1.0000
  C   C181      1.0  0.09205  0.37368  0.30880  1.0000
  C   C182      1.0  0.32218  0.35451  0.31194  1.0000
  S   S39       1.0  0.09298  0.49537  0.00105  1.0000
  H   H305      1.0  0.08973  0.27078  0.23778  1.0000
  H   H306      1.0  0.32877  0.32029  0.23192  1.0000
  C   C183      1.0  0.26280  0.34447  0.06977  1.0000
  H   H307      1.0  0.27846  0.35096  0.06733  1.0000
  H   H308      1.0  0.31408  0.32903  0.29313  1.0000
  H   H309      1.0  0.10529  0.48696  0.05187  1.0000
  H   H310      1.0  0.12189  0.27932  0.25332  1.0000
  C   C184      1.0  0.14595  0.44318  0.13690  1.0000
  H   H311      1.0  0.26421  0.39608  0.13155  1.0000
  H   H312      1.0  0.31997  0.33406  0.03534  1.0000
  H   H313      1.0  0.14012  0.31041  0.30502  1.0000
  H   H314      1.0  0.12321  0.50119  0.25419  1.0000
  H   H315      1.0  0.05227  0.48559  0.40652  1.0000
  C   C185      1.0  0.07622  0.48053  0.16609  1.0000
  C   C186      1.0  0.09581  0.38400  0.26174  1.0000
  H   H316      1.0  0.26180  0.32688  0.03552  1.0000
  C   C187      1.0  0.31330  0.36922  0.26292  1.0000
  H   H317      1.0  0.05510  0.27774  0.05142  1.0000
  C   C188      1.0  0.09871  0.40639  0.29598  1.0000
  H   H318      1.0  0.24474  0.34598  0.02032  1.0000
  C   C189      1.0  0.00767  0.45026  0.37321  1.0000
  H   H319      1.0  0.05081  0.31639  0.14928  1.0000
  H   H320      1.0  0.30631  0.34199  0.24998  1.0000
  H   H321      1.0  0.00946  0.39900  0.38167  1.0000
  C   C190      1.0  0.31580  0.34338  0.29062  1.0000
  H   H322      1.0  0.05896  0.30845  0.41048  1.0000
  C   C191      1.0  0.04065  0.35601  0.19920  1.0000
  H   H323      1.0  0.02032  0.30852  0.46361  1.0000
  H   H324      1.0  0.00977  0.36712  0.46768  1.0000
  C   C192      1.0  0.27327  0.36435  0.01591  1.0000
  H   H325      1.0  0.07986  0.27357  0.00035  1.0000
  H   H326      1.0  0.08992  0.35458  0.26111  1.0000
  H   H327      1.0  0.02508  0.26679  0.24488  1.0000
  C   C193      1.0  0.99878  0.38807  0.13603  1.0000
  H   H328      1.0  0.12268  0.43156  0.32714  1.0000
  H   H329      1.0  0.01157  0.40940  0.10570  1.0000
  H   H330      1.0  0.22942  0.34523  0.08998  1.0000
  H   H331      1.0  0.05005  0.38722  0.98632  1.0000
  H   H332      1.0  0.07360  0.31320  0.01909  1.0000
  S   S40       1.0  0.04295  0.27533  0.31618  1.0000
  S   S41       1.0  0.32803  0.36044  0.16709  1.0000
  H   H333      1.0  0.08762  0.36314  0.37770  1.0000
  H   H334      1.0  0.08798  0.36505  0.99189  1.0000
  H   H335      1.0  0.10658  0.36809  0.21796  1.0000
  H   H336      1.0  0.07032  0.30742  0.48095  1.0000
  C   C194      1.0  0.08555  0.36564  0.25040  1.0000
  H   H337      1.0  0.06980  0.36275  0.25225  1.0000
  H   H338      1.0  0.28169  0.40007  0.10405  1.0000
  Fe  Fe22      1.0  0.31025  0.33182  0.16578  1.0000
  S   S42       1.0  0.32952  0.38997  0.37792  1.0000
  H   H339      1.0  0.00634  0.48049  0.33195  1.0000
  C   C195      1.0  0.12920  0.42939  0.30758  1.0000
  H   H340      1.0  0.08421  0.35180  0.21329  1.0000
  H   H341      1.0  0.02694  0.49833  0.41459  1.0000
  H   H342      1.0  0.10516  0.35955  0.35376  1.0000
  H   H343      1.0  0.02539  0.28146  0.45615  1.0000
  C   C196      1.0  0.05486  0.27273  0.22967  1.0000
  H   H344      1.0  0.19154  0.34056  0.05581  1.0000
  C   C197      1.0  0.02095  0.36344  0.16161  1.0000
  H   H345      1.0  0.10711  0.37299  0.30680  1.0000
  S   S43       1.0  0.32095  0.38345  0.09547  1.0000
  H   H346      1.0  0.12687  0.43934  0.29231  1.0000
  H   H347      1.0  0.28100  0.37809  0.02149  1.0000
  C   C198      1.0  0.09847  0.33666  0.46931  1.0000
  H   H348      1.0  0.08135  0.33668  0.43535  1.0000
  H   H349      1.0  0.32278  0.38556  0.99727  1.0000
  C   C199      1.0  0.25279  0.35873  0.02906  1.0000
  C   C200      1.0  0.25961  0.37532  0.07010  1.0000
  H   H350      1.0  0.03487  0.37202  0.15296  1.0000
  C   C201      1.0  0.02965  0.40501  0.45805  1.0000
  H   H351      1.0  0.06526  0.46994  0.17781  1.0000
  H   H352      1.0  0.06109  0.47880  0.36037  1.0000
  C   C202      1.0  0.03433  0.34968  0.11146  1.0000
  C   C203      1.0  0.03889  0.33518  0.09437  1.0000
  H   H353      1.0  0.26796  0.40079  0.47872  1.0000
  C   C204      1.0  0.01733  0.39970  0.43333  1.0000
  H   H354      1.0  0.99857  0.40564  0.04220  1.0000
  H   H355      1.0  0.29430  0.42383  0.47037  1.0000
  H   H356      1.0  0.25881  0.40506  0.09988  1.0000
  H   H357      1.0  0.24574  0.36907  0.02175  1.0000
  C   C205      1.0  0.26612  0.39563  0.10949  1.0000
  H   H358      1.0  0.03155  0.27671  0.00776  1.0000
  N   N12       1.0  0.04843  0.30603  0.45179  1.0000
  H   H359      1.0  0.03844  0.32899  0.46317  1.0000
  H   H360      1.0  0.14159  0.43629  0.15689  1.0000
  C   C206      1.0  0.01406  0.45518  0.42043  1.0000
  C   C207      1.0  0.32219  0.37712  0.01515  1.0000
  H   H361      1.0  0.07023  0.34017  0.46676  1.0000
  C   C208      1.0  0.32090  0.37364  0.06401  1.0000
  H   H362      1.0  0.05940  0.41286  0.46853  1.0000
  H   H363      1.0  0.06241  0.26847  0.21237  1.0000
  H   H364      1.0  0.00632  0.34367  0.05233  1.0000
  S   S44       1.0  0.00012  0.29519  0.31788  1.0000
  C   C209      1.0  0.01667  0.50295  0.35783  1.0000
  H   H365      1.0  0.04323  0.26343  0.37194  1.0000
  C   C210      1.0  0.00656  0.37352  0.12234  1.0000
  H   H366      1.0  0.06354  0.50009  0.10587  1.0000
  H   H367      1.0  0.01065  0.33059  0.13338  1.0000
  H   H368      1.0  0.32909  0.38173  0.32458  1.0000
  H   H369      1.0  0.04819  0.26398  0.01371  1.0000
  H   H370      1.0  0.10522  0.42357  0.01463  1.0000
  H   H371      1.0  0.07243  0.37407  0.47095  1.0000
  S   S45       1.0  0.32762  0.34494  0.34244  1.0000
  H   H372      1.0  0.07173  0.42109  0.99922  1.0000
  C   C211      1.0  0.00792  0.49522  0.33198  1.0000
  H   H373      1.0  0.32096  0.29498  0.06395  1.0000
  C   C212      1.0  0.32644  0.28827  0.04734  1.0000
  C   C213      1.0  0.28172  0.34487  0.48343  1.0000
  H   H374      1.0  0.99817  0.36935  0.10440  1.0000
  Fe  Fe23      1.0  0.02478  0.46194  0.98769  1.0000
  C   C214      1.0  0.03620  0.49874  0.36202  1.0000
  H   H375      1.0  0.08027  0.49913  0.35744  1.0000
  H   H376      1.0  0.04434  0.50064  0.34241  1.0000
  H   H377      1.0  0.01708  0.50188  0.31432  1.0000
  C   C215      1.0  0.09771  0.29976  0.98694  1.0000
  S   S46       1.0  0.05117  0.45221  0.98606  1.0000
  H   H378      1.0  0.12758  0.50112  0.06223  1.0000
  H   H379      1.0  0.10043  0.50354  0.21917  1.0000
  C   C216      1.0  0.03843  0.25521  0.47679  1.0000
  H   H380      1.0  0.99841  0.45016  0.35665  1.0000
  Fe  Fe24      1.0  0.07818  0.46365  0.75612  1.0000
  S   S47       1.0  0.05528  0.43793  0.76391  1.0000
  S   S48       1.0  0.10845  0.46337  0.74538  1.0000
  Fe  Fe25      1.0  0.05082  0.48633  0.76903  1.0000
  H   H381      1.0  0.23906  0.33302  0.71875  1.0000
  H   H382      1.0  0.29274  0.41552  0.81671  1.0000
  Fe  Fe26      1.0  0.04629  0.45096  0.79997  1.0000
  H   H383      1.0  0.22382  0.43138  0.73595  1.0000
  Fe  Fe27      1.0  0.03733  0.45200  0.73983  1.0000
  S   S49       1.0  0.07083  0.47553  0.79386  1.0000
  S   S50       1.0  0.06088  0.47721  0.73031  1.0000
  S   S51       1.0  0.04674  0.45177  0.55538  1.0000
  H   H384      1.0  0.13783  0.33855  0.49422  1.0000
  Fe  Fe28      1.0  0.03487  0.43131  0.52511  1.0000
  S   S52       1.0  0.03561  0.40180  0.53026  1.0000
  Fe  Fe29      1.0  0.05692  0.47228  0.52113  1.0000
  H   H385      1.0  0.18060  0.31086  0.58607  1.0000
  Fe  Fe30      1.0  0.17606  0.38714  0.65962  1.0000
  S   S53       1.0  0.16323  0.35738  0.65947  1.0000
  S   S54       1.0  0.20819  0.39760  0.66166  1.0000
  Fe  Fe31      1.0  0.13706  0.39472  0.65582  1.0000
  S   S55       1.0  0.12181  0.36525  0.65550  1.0000
  S   S56       1.0  0.11681  0.41239  0.65177  1.0000
  Fe  Fe32      1.0  0.14125  0.36239  0.68845  1.0000
  S   S57       1.0  0.13279  0.34389  0.72542  1.0000
  Fe  Fe33      1.0  0.14547  0.36360  0.62650  1.0000
  S   S58       1.0  0.14090  0.34547  0.59116  1.0000
  S   S59       1.0  0.15507  0.39192  0.69069  1.0000
  S   S60       1.0  0.15964  0.39323  0.62455  1.0000
  Fe  Fe34      1.0  0.28240  0.34419  0.65873  1.0000
  S   S61       1.0  0.29906  0.37312  0.65885  1.0000
  S   S62       1.0  0.25026  0.33541  0.65876  1.0000
  H   H386      1.0  0.29253  0.42785  0.68460  1.0000
  H   H387      1.0  0.06028  0.48144  0.90482  1.0000
  H   H388      1.0  0.26448  0.34124  0.72198  1.0000
  C   C217      1.0  0.29214  0.40106  0.81482  1.0000
  H   H389      1.0  0.00851  0.49835  0.62926  1.0000
  H   H390      1.0  0.16994  0.31485  0.65908  1.0000
  H   H391      1.0  0.08238  0.31118  0.71846  1.0000
  H   H392      1.0  0.22226  0.41313  0.71397  1.0000
  C   C218      1.0  0.04189  0.28897  0.86868  1.0000
  H   H393      1.0  0.09693  0.29822  0.85680  1.0000
  H   H394      1.0  0.07606  0.35249  0.83989  1.0000
  S   S63       1.0  0.03451  0.28051  0.81592  1.0000
  Fe  Fe35      1.0  0.29914  0.38541  0.90899  1.0000
  S   S64       1.0  0.27097  0.39331  0.90719  1.0000
  S   S65       1.0  0.29791  0.35612  0.91323  1.0000
  Fe  Fe36      1.0  0.13428  0.36028  0.87665  1.0000
  S   S66       1.0  0.13868  0.33261  0.87529  1.0000
  S   S67       1.0  0.13186  0.37712  0.83951  1.0000
  Fe  Fe37      1.0  0.13346  0.35936  0.93813  1.0000
  S   S68       1.0  0.13791  0.33170  0.94067  1.0000
  H   H395      1.0  0.23426  0.38770  0.75829  1.0000
  Fe  Fe38      1.0  0.16005  0.34203  0.90711  1.0000
  S   S69       1.0  0.18914  0.33589  0.90510  1.0000
  Fe  Fe39      1.0  0.11619  0.32547  0.90865  1.0000
  H   H396      1.0  0.07094  0.35517  0.75817  1.0000
  S   S70       1.0  0.15684  0.37015  0.90650  1.0000
  S   S71       1.0  0.11052  0.35266  0.90821  1.0000
  H   H397      1.0  0.04341  0.34996  0.83555  1.0000
  C   C219      1.0  0.04839  0.35935  0.62304  1.0000
  H   H398      1.0  0.24996  0.36603  0.70966  1.0000
  H   H399      1.0  0.23362  0.35996  0.73818  1.0000
  H   H400      1.0  0.27378  0.38720  0.69293  1.0000
  C   C220      1.0  0.06929  0.29033  0.83915  1.0000
  H   H401      1.0  0.27759  0.37055  0.74299  1.0000
  C   C221      1.0  0.22446  0.41717  0.73498  1.0000
  C   C222      1.0  0.27511  0.40120  0.69851  1.0000
  H   H402      1.0  0.05681  0.48237  0.94036  1.0000
  H   H403      1.0  0.05923  0.38397  0.49432  1.0000
  H   H404      1.0  0.24870  0.33541  0.75160  1.0000
  C   C223      1.0  0.05422  0.29396  0.88994  1.0000
  H   H405      1.0  0.02658  0.28624  0.87212  1.0000
  H   H406      1.0  0.04819  0.29495  0.90964  1.0000
  C   C224      1.0  0.24823  0.37715  0.90769  1.0000
  C   C225      1.0  0.23142  0.38300  0.90868  1.0000
  C   C226      1.0  0.21320  0.37055  0.90863  1.0000
  C   C227      1.0  0.21158  0.35209  0.90728  1.0000
  C   C228      1.0  0.22836  0.34625  0.90643  1.0000
  C   C229      1.0  0.24653  0.35867  0.90663  1.0000
  H   H407      1.0  0.23250  0.39723  0.90963  1.0000
  H   H408      1.0  0.20043  0.37523  0.90959  1.0000
  H   H409      1.0  0.22731  0.33203  0.90532  1.0000
  H   H410      1.0  0.25917  0.35387  0.90564  1.0000
  C   C230      1.0  0.24511  0.39573  0.74332  1.0000
  C   C231      1.0  0.06730  0.32975  0.79430  1.0000
  H   H411      1.0  0.02973  0.36345  0.53860  1.0000
  H   H412      1.0  0.08376  0.40065  0.91974  1.0000
  C   C232      1.0  0.06716  0.48715  0.92315  1.0000
  H   H413      1.0  0.10324  0.32381  0.57397  1.0000
  H   H414      1.0  0.26179  0.40495  0.69388  1.0000
  H   H415      1.0  0.04601  0.36912  0.58288  1.0000
  H   H416      1.0  0.08458  0.36810  0.60624  1.0000
  H   H417      1.0  0.28875  0.38117  0.78533  1.0000
  H   H418      1.0  0.25505  0.42458  0.73049  1.0000
  C   C233      1.0  0.22020  0.38052  0.66172  1.0000
  C   C234      1.0  0.23891  0.38417  0.65074  1.0000
  C   C235      1.0  0.24830  0.37040  0.64973  1.0000
  C   C236      1.0  0.23901  0.35297  0.65974  1.0000
  C   C237      1.0  0.22045  0.34942  0.67100  1.0000
  C   C238      1.0  0.21122  0.36322  0.67235  1.0000
  H   H419      1.0  0.24601  0.39756  0.64261  1.0000
  H   H420      1.0  0.26254  0.37322  0.64076  1.0000
  H   H421      1.0  0.21327  0.33603  0.67912  1.0000
  H   H422      1.0  0.19727  0.36049  0.68208  1.0000
  C   C239      1.0  0.14354  0.35394  0.55755  1.0000
  C   C240      1.0  0.14860  0.37242  0.55107  1.0000
  C   C241      1.0  0.14920  0.37869  0.52420  1.0000
  C   C242      1.0  0.14528  0.36654  0.50353  1.0000
  C   C243      1.0  0.14086  0.34804  0.50995  1.0000
  C   C244      1.0  0.13987  0.34178  0.53689  1.0000
  H   H423      1.0  0.15191  0.38189  0.56676  1.0000
  H   H424      1.0  0.15277  0.39302  0.51934  1.0000
  H   H425      1.0  0.04530  0.32873  0.94281  1.0000
  H   H426      1.0  0.13602  0.32744  0.54173  1.0000
  C   C245      1.0  0.13408  0.35380  0.75678  1.0000
  C   C246      1.0  0.13395  0.37180  0.75913  1.0000
  C   C247      1.0  0.13364  0.37893  0.78458  1.0000
  C   C248      1.0  0.13353  0.36814  0.80782  1.0000
  C   C249      1.0  0.13397  0.35024  0.80536  1.0000
  C   C250      1.0  0.13425  0.34310  0.77998  1.0000
  H   H427      1.0  0.13352  0.38012  0.74143  1.0000
  H   H428      1.0  0.13317  0.39278  0.78627  1.0000
  H   H429      1.0  0.13339  0.34164  0.82296  1.0000
  H   H430      1.0  0.13420  0.32912  0.77836  1.0000
  H   H431      1.0  0.29415  0.29624  0.62347  1.0000
  H   H432      1.0  0.21708  0.37778  0.49805  1.0000
  C   C251      1.0  0.01589  0.36610  0.54018  1.0000
  H   H433      1.0  0.10098  0.48869  0.70138  1.0000
  S   S72       1.0  0.08931  0.30225  0.91314  1.0000
  C   C252      1.0  0.11041  0.44860  0.72006  1.0000
  C   C253      1.0  0.09516  0.44190  0.70356  1.0000
  C   C254      1.0  0.09721  0.43064  0.68284  1.0000
  C   C255      1.0  0.11436  0.42575  0.67881  1.0000
  C   C256      1.0  0.12948  0.43219  0.69559  1.0000
  C   C257      1.0  0.12757  0.44376  0.71599  1.0000
  H   H434      1.0  0.08186  0.44556  0.70661  1.0000
  H   H435      1.0  0.08539  0.42557  0.67013  1.0000
  H   H436      1.0  0.14280  0.42859  0.69251  1.0000
  H   H437      1.0  0.13940  0.44891  0.72872  1.0000
  C   C258      1.0  0.01447  0.38388  0.53664  1.0000
  H   H438      1.0  0.03253  0.43798  0.93852  1.0000
  H   H439      1.0  0.25958  0.36629  0.76893  1.0000
  H   H440      1.0  0.11406  0.28590  0.96220  1.0000
  C   C259      1.0  0.30141  0.29317  0.58155  1.0000
  N   N13       1.0  0.08648  0.37246  0.56306  1.0000
  C   C260      1.0  0.07277  0.37226  0.54092  1.0000
  C   C261      1.0  0.07643  0.37260  0.59003  1.0000
  C   C262      1.0  0.10237  0.38971  0.55904  1.0000
  C   C263      1.0  0.09543  0.35689  0.56205  1.0000
  C   C264      1.0  0.08156  0.33774  0.56449  1.0000
  H   H441      1.0  0.24797  0.37078  0.49188  1.0000
  C   C265      1.0  0.11569  0.39505  0.58280  1.0000
  C   C266      1.0  0.08398  0.47905  0.92733  1.0000
  C   C267      1.0  0.13143  0.41233  0.57561  1.0000
  H   H442      1.0  0.06622  0.38375  0.54284  1.0000
  H   H443      1.0  0.06062  0.36002  0.54263  1.0000
  H   H444      1.0  0.07626  0.38662  0.59457  1.0000
  H   H445      1.0  0.09628  0.40130  0.55448  1.0000
  H   H446      1.0  0.11189  0.38898  0.54144  1.0000
  H   H447      1.0  0.10458  0.35800  0.54344  1.0000
  H   H448      1.0  0.10545  0.35745  0.57857  1.0000
  H   H449      1.0  0.07005  0.33602  0.55002  1.0000
  C   C268      1.0  0.23869  0.34363  0.56957  1.0000
  Fe  Fe40      1.0  0.00241  0.27686  0.82004  1.0000
  H   H450      1.0  0.12253  0.38430  0.58855  1.0000
  H   H451      1.0  0.10761  0.39769  0.60064  1.0000
  H   H452      1.0  0.08169  0.30976  0.56125  1.0000
  H   H453      1.0  0.00080  0.33811  0.54897  1.0000
  H   H454      1.0  0.05882  0.31693  0.80457  1.0000
  C   C269      1.0  0.08116  0.34018  0.83905  1.0000
  H   H455      1.0  0.14110  0.41011  0.55920  1.0000
  H   H456      1.0  0.12518  0.42343  0.56925  1.0000
  H   H457      1.0  0.14001  0.41658  0.59339  1.0000
  C   C270      1.0  0.08869  0.42942  0.60431  1.0000
  H   H458      1.0  0.08343  0.42131  0.58687  1.0000
  H   H459      1.0  0.10440  0.43147  0.60494  1.0000
  H   H460      1.0  0.08176  0.42185  0.62286  1.0000
  C   C271      1.0  0.08165  0.29587  0.86016  1.0000
  H   H461      1.0  0.15522  0.48399  0.58011  1.0000
  C   C272      1.0  0.32730  0.26129  0.52180  1.0000
  H   H462      1.0  0.21092  0.36216  0.55339  1.0000
  H   H463      1.0  0.30673  0.30930  0.74472  1.0000
  H   H464      1.0  0.00492  0.33052  0.86413  1.0000
  C   C273      1.0  0.03246  0.39385  0.94057  1.0000
  C   C274      1.0  0.20685  0.38709  0.58617  1.0000
  C   C275      1.0  0.00356  0.45438  0.67173  1.0000
  H   H465      1.0  0.10086  0.37287  0.71616  1.0000
  C   C276      1.0  0.04939  0.28697  0.84322  1.0000
  H   H466      1.0  0.26563  0.35092  0.97852  1.0000
  H   H467      1.0  0.05910  0.29776  0.95306  1.0000
  N   N14       1.0  0.19837  0.36345  0.81599  1.0000
  C   C277      1.0  0.21785  0.36024  0.81144  1.0000
  C   C278      1.0  0.19135  0.36883  0.78961  1.0000
  C   C279      1.0  0.20081  0.37931  0.83378  1.0000
  C   C280      1.0  0.18398  0.34739  0.82944  1.0000
  C   C281      1.0  0.18573  0.32840  0.82231  1.0000
  C   C282      1.0  0.22853  0.35779  0.83716  1.0000
  C   C283      1.0  0.18281  0.38615  0.83910  1.0000
  C   C284      1.0  0.18866  0.35512  0.76725  1.0000
  C   C285      1.0  0.18547  0.36381  0.74041  1.0000
  C   C286      1.0  0.16856  0.31359  0.83369  1.0000
  C   C287      1.0  0.24575  0.35045  0.83111  1.0000
  C   C288      1.0  0.18679  0.40127  0.85882  1.0000
  H   H468      1.0  0.22735  0.37174  0.79944  1.0000
  H   H469      1.0  0.21707  0.34832  0.79937  1.0000
  H   H470      1.0  0.17699  0.37128  0.79245  1.0000
  H   H471      1.0  0.20107  0.38183  0.78153  1.0000
  H   H472      1.0  0.21245  0.39097  0.82543  1.0000
  H   H473      1.0  0.20527  0.37584  0.85393  1.0000
  H   H474      1.0  0.18475  0.34778  0.85162  1.0000
  H   H475      1.0  0.16920  0.34808  0.82541  1.0000
  H   H476      1.0  0.19866  0.32575  0.83098  1.0000
  H   H477      1.0  0.18680  0.32689  0.80050  1.0000
  H   H478      1.0  0.23403  0.37094  0.84652  1.0000
  H   H479      1.0  0.21886  0.34845  0.85204  1.0000
  H   H480      1.0  0.17083  0.37501  0.84760  1.0000
  H   H481      1.0  0.17823  0.39183  0.82054  1.0000
  H   H482      1.0  0.20114  0.34961  0.76420  1.0000
  H   H483      1.0  0.17571  0.34387  0.77221  1.0000
  H   H484      1.0  0.19878  0.37376  0.73263  1.0000
  H   H485      1.0  0.18114  0.35323  0.72562  1.0000
  H   H486      1.0  0.17388  0.37069  0.74239  1.0000
  H   H487      1.0  0.17012  0.30022  0.82808  1.0000
  H   H488      1.0  0.16777  0.31374  0.85590  1.0000
  H   H489      1.0  0.15506  0.31538  0.82560  1.0000
  H   H490      1.0  0.25629  0.35990  0.81726  1.0000
  H   H491      1.0  0.25292  0.34887  0.85001  1.0000
  H   H492      1.0  0.24115  0.33704  0.82226  1.0000
  H   H493      1.0  0.19801  0.41313  0.85034  1.0000
  H   H494      1.0  0.17348  0.40547  0.86285  1.0000
  H   H495      1.0  0.19150  0.39668  0.87810  1.0000
  C   C289      1.0  0.26331  0.37265  0.74842  1.0000
  C   C290      1.0  0.24838  0.36070  0.73061  1.0000
  C   C291      1.0  0.25033  0.34143  0.73086  1.0000
  H   H496      1.0  0.23990  0.39073  0.72363  1.0000
  Fe  Fe41      1.0  0.01919  0.45924  0.55269  1.0000
  H   H497      1.0  0.04486  0.42783  0.89672  1.0000
  H   H498      1.0  0.20971  0.39557  0.60381  1.0000
  C   C292      1.0  0.09859  0.29436  0.73570  1.0000
  H   H499      1.0  0.08333  0.48339  0.65984  1.0000
  H   H500      1.0  0.07524  0.33495  0.58520  1.0000
  C   C293      1.0  0.09200  0.32331  0.55923  1.0000
  C   C294      1.0  0.03054  0.44408  0.91945  1.0000
  N   N15       1.0  0.07029  0.32705  0.76481  1.0000
  C   C295      1.0  0.03738  0.43823  0.89570  1.0000
  N   N16       1.0  0.26443  0.39261  0.74839  1.0000
  C   C296      1.0  0.07416  0.29751  0.88575  1.0000
  H   H501      1.0  0.20215  0.31408  0.54866  1.0000
  C   C297      1.0  0.03065  0.44557  0.65309  1.0000
  C   C298      1.0  0.02651  0.45104  0.62723  1.0000
  H   H502      1.0  0.07994  0.45443  0.64233  1.0000
  C   C299      1.0  0.24390  0.41552  0.74398  1.0000
  C   C300      1.0  0.29116  0.41347  0.68066  1.0000
  H   H503      1.0  0.21267  0.40859  0.74810  1.0000
  C   C301      1.0  0.03452  0.44564  0.87059  1.0000
  C   C302      1.0  0.02051  0.45729  0.91841  1.0000
  H   H504      1.0  0.03864  0.41969  0.60108  1.0000
  S   S73       1.0  0.02972  0.48059  0.51961  1.0000
  S   S74       1.0  0.02561  0.46221  0.77684  1.0000
  C   C303      1.0  0.27969  0.40316  0.72841  1.0000
  S   S75       1.0  0.04228  0.43675  0.84135  1.0000
  C   C304      1.0  0.08398  0.44754  0.60151  1.0000
  H   H505      1.0  0.10397  0.45664  0.63274  1.0000
  H   H506      1.0  0.06823  0.44481  0.60055  1.0000
  C   C305      1.0  0.27006  0.39907  0.77592  1.0000
  H   H507      1.0  0.25840  0.39276  0.79105  1.0000
  H   H508      1.0  0.29326  0.39920  0.73083  1.0000
  H   H509      1.0  0.24559  0.42039  0.76460  1.0000
  H   H510      1.0  0.05523  0.40041  0.84967  1.0000
  C   C306      1.0  0.06072  0.33234  0.94722  1.0000
  H   H511      1.0  0.28627  0.38692  0.59449  1.0000
  H   H512      1.0  0.07953  0.32675  0.97654  1.0000
  H   H513      1.0  0.04667  0.40488  0.62424  1.0000
  H   H514      1.0  0.05064  0.25817  0.96491  1.0000
  H   H515      1.0  0.28342  0.41778  0.73237  1.0000
  H   H516      1.0  0.28785  0.41135  0.65929  1.0000
  C   C307      1.0  0.05506  0.36174  0.59352  1.0000
  H   H517      1.0  0.09865  0.32520  0.53869  1.0000
  H   H518      1.0  0.30596  0.39896  0.82110  1.0000
  C   C308      1.0  0.22001  0.33431  0.58604  1.0000
  C   C309      1.0  0.28890  0.39558  0.78592  1.0000
  H   H519      1.0  0.27207  0.41387  0.77667  1.0000
  H   H520      1.0  0.05634  0.35113  0.63423  1.0000
  H   H521      1.0  0.00479  0.35949  0.83798  1.0000
  C   C310      1.0  0.09073  0.45950  0.62552  1.0000
  H   H522      1.0  0.01104  0.39515  0.59044  1.0000
  H   H523      1.0  0.02900  0.40640  0.80852  1.0000
  H   H524      1.0  0.05214  0.34821  0.58531  1.0000
  C   C311      1.0  0.11400  0.48758  0.66180  1.0000
  C   C312      1.0  0.32324  0.36996  0.75942  1.0000
  H   H525      1.0  0.06063  0.41192  0.93530  1.0000
  H   H526      1.0  0.30139  0.40358  0.77342  1.0000
  H   H527      1.0  0.28058  0.39272  0.82857  1.0000
  H   H528      1.0  0.09051  0.45429  0.58220  1.0000
  H   H529      1.0  0.11394  0.39166  0.91205  1.0000
  C   C313      1.0  0.11457  0.29165  0.98232  1.0000
  H   H530      1.0  0.19201  0.33792  0.63034  1.0000
  H   H531      1.0  0.08101  0.42778  0.96642  1.0000
  C   C314      1.0  0.02482  0.45911  0.86947  1.0000
  H   H532      1.0  0.28751  0.36868  0.97647  1.0000
  C   C315      1.0  0.20023  0.32798  0.54706  1.0000
  H   H533      1.0  0.05068  0.37263  0.63220  1.0000
  H   H534      1.0  0.31388  0.40658  0.51412  1.0000
  H   H535      1.0  0.10451  0.48709  0.57910  1.0000
  S   S76       1.0  0.30031  0.33736  0.62559  1.0000
  H   H536      1.0  0.22878  0.40021  0.50772  1.0000
  H   H537      1.0  0.09894  0.32344  0.76280  1.0000
  H   H538      1.0  0.21875  0.39230  0.57103  1.0000
  H   H539      1.0  0.06265  0.47509  0.62265  1.0000
  S   S77       1.0  0.32128  0.34898  0.98162  1.0000
  C   C316      1.0  0.01744  0.31819  0.74282  1.0000
  C   C317      1.0  0.20537  0.36747  0.59462  1.0000
  H   H540      1.0  0.09059  0.34003  0.71255  1.0000
  C   C318      1.0  0.09645  0.40725  0.93103  1.0000
  H   H541      1.0  0.00644  0.32573  0.74513  1.0000
  H   H542      1.0  0.29290  0.41265  0.56003  1.0000
  H   H543      1.0  0.25552  0.32811  0.59061  1.0000
  H   H544      1.0  0.31275  0.32022  0.90111  1.0000
  H   H545      1.0  0.12261  0.46561  0.59084  1.0000
  H   H546      1.0  0.00767  0.31479  0.50856  1.0000
  C   C319      1.0  0.02275  0.32126  0.51327  1.0000
  N   N17       1.0  0.09343  0.47945  0.62002  1.0000
  S   S78       1.0  0.00418  0.46400  0.59124  1.0000
  H   H547      1.0  0.07749  0.27987  0.96658  1.0000
  H   H548      1.0  0.09484  0.34936  0.80085  1.0000
  C   C320      1.0  0.04987  0.38389  0.81410  1.0000
  H   H549      1.0  0.03244  0.49801  0.92770  1.0000
  N   N18       1.0  0.32834  0.27875  0.56551  1.0000
  H   H550      1.0  0.30560  0.27255  0.53752  1.0000
  Fe  Fe42      1.0  0.31840  0.36563  0.62797  1.0000
  S   S79       1.0  0.29842  0.33490  0.69171  1.0000
  C   C321      1.0  0.07507  0.48194  0.60900  1.0000
  H   H551      1.0  0.07244  0.47550  0.58947  1.0000
  H   H552      1.0  0.23935  0.33706  0.55033  1.0000
  S   S80       1.0  0.32060  0.34494  0.84491  1.0000
  C   C322      1.0  0.09624  0.48877  0.64620  1.0000
  H   H553      1.0  0.27739  0.27819  0.60775  1.0000
  H   H554      1.0  0.27066  0.37503  0.54415  1.0000
  H   H555      1.0  0.22167  0.33967  0.60640  1.0000
  C   C323      1.0  0.31380  0.34410  0.79107  1.0000
  H   H556      1.0  0.03289  0.35227  0.62486  1.0000
  H   H557      1.0  0.28897  0.35557  0.52194  1.0000
  H   H558      1.0  0.18249  0.30411  0.50858  1.0000
  C   C324      1.0  0.25634  0.34234  0.58466  1.0000
  H   H559      1.0  0.03525  0.38386  0.92662  1.0000
  C   C325      1.0  0.08619  0.36632  0.70978  1.0000
  C   C326      1.0  0.31493  0.30076  0.73503  1.0000
  C   C327      1.0  0.03626  0.31200  0.49914  1.0000
  H   H560      1.0  0.15680  0.32174  0.63256  1.0000
  C   C328      1.0  0.16801  0.31479  0.63713  1.0000
  H   H561      1.0  0.09685  0.28567  0.71822  1.0000
  H   H562      1.0  0.08639  0.36697  0.68756  1.0000
  H   H563      1.0  0.02071  0.38534  0.72252  1.0000
  H   H564      1.0  0.30586  0.26797  0.59602  1.0000
  H   H565      1.0  0.19355  0.36332  0.61003  1.0000
  H   H566      1.0  0.03146  0.29757  0.50562  1.0000
  H   H567      1.0  0.19742  0.31669  0.62750  1.0000
  C   C329      1.0  0.08165  0.39568  0.83596  1.0000
  H   H568      1.0  0.26093  0.38323  0.58923  1.0000
  H   H569      1.0  0.07865  0.46414  0.92953  1.0000
  H   H570      1.0  0.11452  0.47347  0.66563  1.0000
  C   C330      1.0  0.03859  0.26281  0.97348  1.0000
  H   H571      1.0  0.05509  0.39577  0.79983  1.0000
  S   S81       1.0  0.32147  0.39413  0.94014  1.0000
  H   H572      1.0  0.01140  0.30430  0.75163  1.0000
  C   C331      1.0  0.08386  0.31522  0.76219  1.0000
  C   C332      1.0  0.28046  0.35818  0.50486  1.0000
  N   N19       1.0  0.28411  0.39269  0.51023  1.0000
  H   H573      1.0  0.07017  0.32861  0.84871  1.0000
  H   H574      1.0  0.06589  0.34717  0.94871  1.0000
  C   C333      1.0  0.03872  0.40554  0.60577  1.0000
  H   H575      1.0  0.09258  0.38613  0.50763  1.0000
  Fe  Fe43      1.0  0.31626  0.36355  0.69003  1.0000
  H   H576      1.0  0.21187  0.33590  0.53304  1.0000
  C   C334      1.0  0.01076  0.45802  0.62349  1.0000
  C   C335      1.0  0.00778  0.39886  0.63377  1.0000
  H   H577      1.0  0.02372  0.34538  0.96718  1.0000
  N   N20       1.0  0.20159  0.33603  0.57431  1.0000
  C   C336      1.0  0.20100  0.35540  0.57035  1.0000
  H   H578      1.0  0.10098  0.45671  0.98172  1.0000
  H   H579      1.0  0.09436  0.34237  0.85060  1.0000
  H   H580      1.0  0.08757  0.36189  0.50846  1.0000
  H   H581      1.0  0.03520  0.44945  0.61016  1.0000
  H   H582      1.0  0.04235  0.43948  0.65564  1.0000
  C   C337      1.0  0.18463  0.32522  0.59163  1.0000
  H   H583      1.0  0.18655  0.35606  0.56425  1.0000
  C   C338      1.0  0.03533  0.32772  0.75717  1.0000
  H   H584      1.0  0.19321  0.38833  0.57779  1.0000
  C   C339      1.0  0.05992  0.38925  0.84069  1.0000
  H   H585      1.0  0.23967  0.35806  0.56548  1.0000
  H   H586      1.0  0.12667  0.49483  0.69995  1.0000
  H   H587      1.0  0.11445  0.41260  0.89447  1.0000
  H   H588      1.0  0.21956  0.31978  0.58894  1.0000
  H   H589      1.0  0.10977  0.40191  0.96758  1.0000
  C   C340      1.0  0.06040  0.39213  0.96895  1.0000
  H   H590      1.0  0.21905  0.36715  0.60354  1.0000
  H   H591      1.0  0.04781  0.49967  0.88400  1.0000
  H   H592      1.0  0.32000  0.31229  0.97382  1.0000
  H   H593      1.0  0.09415  0.32646  0.81062  1.0000
  H   H594      1.0  0.26951  0.34781  0.57181  1.0000
  C   C341      1.0  0.08300  0.41980  0.98446  1.0000
  H   H595      1.0  0.06019  0.38004  0.95727  1.0000
  C   C342      1.0  0.08574  0.33657  0.81007  1.0000
  C   C343      1.0  0.26636  0.39727  0.50063  1.0000
  C   C344      1.0  0.27961  0.40151  0.55937  1.0000
  C   C345      1.0  0.01767  0.46476  0.89328  1.0000
  C   C346      1.0  0.07982  0.34665  0.72028  1.0000
  H   H596      1.0  0.30424  0.37986  0.49134  1.0000
  C   C347      1.0  0.99948  0.45985  0.64594  1.0000
  C   C348      1.0  0.07414  0.50168  0.60382  1.0000
  C   C349      1.0  0.08133  0.37333  0.51190  1.0000
  H   H597      1.0  0.16868  0.31905  0.54466  1.0000
  H   H598      1.0  0.05874  0.33959  0.79717  1.0000
  C   C350      1.0  0.24743  0.38222  0.50445  1.0000
  H   H599      1.0  0.09860  0.28584  0.75411  1.0000
  H   H600      1.0  0.27769  0.30130  0.60002  1.0000
  C   C351      1.0  0.18695  0.32439  0.62238  1.0000
  H   H601      1.0  0.01281  0.28866  0.94128  1.0000
  H   H602      1.0  0.04625  0.40101  0.58883  1.0000
  C   C352      1.0  0.18137  0.32699  0.53250  1.0000
  H   H603      1.0  0.12742  0.41272  0.92467  1.0000
  H   H604      1.0  0.02190  0.33910  0.81937  1.0000
  H   H605      1.0  0.09369  0.35108  0.75735  1.0000
  H   H606      1.0  0.02167  0.36342  0.73526  1.0000
  H   H607      1.0  0.08564  0.40804  0.82256  1.0000
  H   H608      1.0  0.03390  0.27106  0.95781  1.0000
  S   S82       1.0  0.00670  0.43795  0.52375  1.0000
  H   H609      1.0  0.05231  0.31477  0.73293  1.0000
  C   C353      1.0  0.02111  0.37070  0.78961  1.0000
  H   H610      1.0  0.11541  0.50236  0.60308  1.0000
  H   H611      1.0  0.09143  0.48402  0.94572  1.0000
  H   H612      1.0  0.09433  0.48256  0.90987  1.0000
  C   C354      1.0  0.07877  0.34543  0.75125  1.0000
  C   C355      1.0  0.02135  0.39462  0.82183  1.0000
  H   H613      1.0  0.03097  0.32803  0.77854  1.0000
  H   H614      1.0  0.29571  0.38342  0.54560  1.0000
  S   S83       1.0  0.32141  0.39146  0.87493  1.0000
  H   H615      1.0  0.04747  0.41475  0.96505  1.0000
  C   C356      1.0  0.18136  0.31814  0.50565  1.0000
  H   H616      1.0  0.08166  0.30537  0.77961  1.0000
  H   H617      1.0  0.13244  0.47770  0.61915  1.0000
  S   S84       1.0  0.02118  0.43612  0.70648  1.0000
  C   C357      1.0  0.14336  0.49061  0.58102  1.0000
  H   H618      1.0  0.04035  0.34169  0.74851  1.0000
  H   H619      1.0  0.29812  0.42066  0.51744  1.0000
  H   H620      1.0  0.02068  0.31750  0.72110  1.0000
  H   H621      1.0  0.05683  0.37767  0.85548  1.0000
  C   C358      1.0  0.05108  0.31765  0.75438  1.0000
  H   H622      1.0  0.06579  0.34052  0.71178  1.0000
  H   H623      1.0  0.07621  0.37397  0.71717  1.0000
  C   C359      1.0  0.08222  0.30337  0.73746  1.0000
  S   S85       1.0  0.04893  0.45078  0.49083  1.0000
  H   H624      1.0  0.06865  0.29244  0.73918  1.0000
  Fe  Fe44      1.0  0.32110  0.36249  0.88064  1.0000
  H   H625      1.0  0.04551  0.30415  0.76495  1.0000
  H   H626      1.0  0.30955  0.30754  0.57834  1.0000
  H   H627      1.0  0.09731  0.42175  0.93241  1.0000
  H   H628      1.0  0.31837  0.29128  0.96005  1.0000
  H   H629      1.0  0.30181  0.31880  0.93425  1.0000
  H   H630      1.0  0.25758  0.35026  0.60292  1.0000
  H   H631      1.0  0.08857  0.39894  0.85533  1.0000
  H   H632      1.0  0.02565  0.32202  0.86030  1.0000
  S   S86       1.0  0.01097  0.46434  0.94801  1.0000
  C   C360      1.0  0.09540  0.39766  0.95896  1.0000
  H   H633      1.0  0.00222  0.50312  0.94519  1.0000
  H   H634      1.0  0.30726  0.32986  0.79504  1.0000
  Fe  Fe45      1.0  0.32108  0.36492  0.94253  1.0000
  C   C361      1.0  0.30070  0.40934  0.50610  1.0000
  H   H635      1.0  0.05558  0.37313  0.80552  1.0000
  H   H636      1.0  0.02681  0.34128  0.88018  1.0000
  C   C362      1.0  0.06591  0.37272  0.49157  1.0000
  H   H637      1.0  0.02569  0.40309  0.92941  1.0000
  H   H638      1.0  0.09701  0.33324  0.49115  1.0000
  C   C363      1.0  0.02602  0.38414  0.76485  1.0000
  C   C364      1.0  0.11390  0.49595  0.68903  1.0000
  C   C365      1.0  0.28253  0.38723  0.53972  1.0000
  H   H639      1.0  0.17181  0.33013  0.58786  1.0000
  C   C366      1.0  0.11414  0.40595  0.91463  1.0000
  H   H640      1.0  0.05835  0.49686  0.56716  1.0000
  C   C367      1.0  0.27505  0.39336  0.58793  1.0000
  S   S87       1.0  0.08532  0.49353  0.52371  1.0000
  H   H641      1.0  0.04172  0.38851  0.76055  1.0000
  H   H642      1.0  0.12725  0.49526  0.65059  1.0000
  C   C368      1.0  0.28851  0.37797  0.49385  1.0000
  H   H643      1.0  0.16311  0.30059  0.63124  1.0000
  C   C369      1.0  0.01823  0.39362  0.60921  1.0000
  H   H644      1.0  0.19340  0.32597  0.49219  1.0000
  H   H645      1.0  0.04344  0.49457  0.59730  1.0000
  H   H646      1.0  0.07517  0.28837  0.81975  1.0000
  C   C370      1.0  0.02080  0.33449  0.86195  1.0000
  H   H647      1.0  0.02725  0.35936  0.78480  1.0000
  H   H648      1.0  0.30337  0.29850  0.91820  1.0000
  H   H649      1.0  0.26769  0.40716  0.55359  1.0000
  C   C371      1.0  0.28679  0.29212  0.60465  1.0000
  H   H650      1.0  0.02497  0.39883  0.84248  1.0000
  H   H651      1.0  0.27446  0.40412  0.60187  1.0000
  S   S88       1.0  0.13016  0.37530  0.97431  1.0000
  H   H652      1.0  0.02232  0.38681  0.95701  1.0000
  H   H653      1.0  0.02241  0.46485  0.85024  1.0000
  C   C372      1.0  0.01672  0.37548  0.73988  1.0000
  H   H654      1.0  0.26448  0.40960  0.50998  1.0000
  H   H655      1.0  0.08732  0.38509  0.82687  1.0000
  H   H656      1.0  0.17963  0.34068  0.52817  1.0000
  C   C373      1.0  0.31084  0.31285  0.92096  1.0000
  C   C374      1.0  0.10972  0.48770  0.59993  1.0000
  Fe  Fe46      1.0  0.31831  0.33127  0.65838  1.0000
  N   N21       1.0  0.02825  0.37828  0.81587  1.0000
  C   C375      1.0  0.02067  0.36413  0.83804  1.0000
  H   H657      1.0  0.09327  0.38312  0.95527  1.0000
  C   C376      1.0  0.05109  0.40462  0.95209  1.0000
  H   H658      1.0  0.29339  0.28897  0.56337  1.0000
  H   H659      1.0  0.30502  0.41036  0.68424  1.0000
  C   C377      1.0  0.32125  0.35492  0.81228  1.0000
  H   H660      1.0  0.30728  0.29505  0.71711  1.0000
  H   H661      1.0  0.24450  0.37746  0.52568  1.0000
  H   H662      1.0  0.06879  0.32838  0.93032  1.0000
  H   H663      1.0  0.00088  0.37150  0.74275  1.0000
  H   H664      1.0  0.31548  0.28946  0.74915  1.0000
  C   C378      1.0  0.31466  0.35159  0.76477  1.0000
  C   C379      1.0  0.27270  0.36455  0.98535  1.0000
  H   H665      1.0  0.12822  0.30230  0.98339  1.0000
  H   H666      1.0  0.26532  0.35517  0.51197  1.0000
  H   H667      1.0  0.02096  0.39633  0.76788  1.0000
  C   C380      1.0  0.02764  0.34681  0.83692  1.0000
  H   H668      1.0  0.05083  0.31802  0.50613  1.0000
  H   H669      1.0  0.30877  0.34314  0.74868  1.0000
  H   H670      1.0  0.02840  0.50355  0.84485  1.0000
  H   H671      1.0  0.02399  0.36996  0.85794  1.0000
  H   H672      1.0  0.02406  0.31997  0.53527  1.0000
  C   C381      1.0  0.33123  0.37228  0.56001  1.0000
  C   C382      1.0  0.31508  0.28123  0.58817  1.0000
  C   C383      1.0  0.01909  0.44711  0.67546  1.0000
  C   C384      1.0  0.05543  0.30218  0.97295  1.0000
  C   C385      1.0  0.12690  0.47920  0.59909  1.0000
  H   H673      1.0  0.03963  0.30028  0.97334  1.0000
  H   H674      1.0  0.11258  0.30466  0.73309  1.0000
  H   H675      1.0  0.01516  0.39542  0.65154  1.0000
  H   H676      1.0  0.26495  0.37427  0.97782  1.0000
  C   C386      1.0  0.32844  0.34548  0.53447  1.0000
  H   H677      1.0  0.01077  0.41376  0.63325  1.0000
  C   C387      1.0  0.05706  0.50243  0.58707  1.0000
  H   H678      1.0  0.09847  0.30992  0.97044  1.0000
  C   C388      1.0  0.23044  0.38891  0.49552  1.0000
  C   C389      1.0  0.32970  0.37331  0.80690  1.0000
  H   H679      1.0  0.01992  0.32280  0.98143  1.0000
  C   C390      1.0  0.01558  0.33552  0.98288  1.0000
  H   H680      1.0  0.11443  0.42999  0.98072  1.0000
  S   S89       1.0  0.32511  0.37992  0.72663  1.0000
  H   H681      1.0  0.01904  0.37952  0.61203  1.0000
  C   C391      1.0  0.99947  0.35166  0.54587  1.0000
  H   H682      1.0  0.02626  0.33579  0.50713  1.0000
  C   C392      1.0  0.06400  0.32291  0.97339  1.0000
  N   N22       1.0  0.08029  0.40018  0.97870  1.0000
  H   H683      1.0  0.00535  0.36462  0.79110  1.0000
  H   H684      1.0  0.13854  0.49205  0.56036  1.0000
  C   C393      1.0  0.32696  0.35351  0.55898  1.0000
  H   H685      1.0  0.09767  0.50342  0.64296  1.0000
  H   H686      1.0  0.99859  0.41377  0.84720  1.0000
  Fe  Fe47      1.0  0.02108  0.45823  0.49082  1.0000
  S   S90       1.0  0.32896  0.38296  0.59017  1.0000
  H   H687      1.0  0.32261  0.34514  0.57701  1.0000
  H   H688      1.0  0.99978  0.29543  0.89800  1.0000
  H   H689      1.0  0.16778  0.31775  0.49568  1.0000
  H   H690      1.0  0.32498  0.33099  0.53382  1.0000
  H   H691      1.0  0.32508  0.44229  0.48717  1.0000
  H   H692      1.0  0.05463  0.35978  0.49388  1.0000
  H   H693      1.0  0.03239  0.50332  0.64128  1.0000
  H   H694      1.0  0.27688  0.33087  0.49214  1.0000
  C   C394      1.0  0.31644  0.26638  0.54612  1.0000
  H   H695      1.0  0.00159  0.39961  0.68961  1.0000
  H   H696      1.0  0.00984  0.47490  0.89219  1.0000
  C   C395      1.0  0.99954  0.39247  0.81995  1.0000
  H   H697      1.0  0.32350  0.28733  0.60537  1.0000
  C   C396      1.0  0.33074  0.38076  0.78060  1.0000
  C   C397      1.0  0.32812  0.30506  0.96117  1.0000
  H   H698      1.0  0.32800  0.30077  0.53751  1.0000
  H   H699      1.0  0.00223  0.42113  0.81224  1.0000
  H   H700      1.0  0.04928  0.28049  0.49482  1.0000
  C   C398      1.0  0.33035  0.31452  0.93284  1.0000
  C   C399      1.0  0.99824  0.28961  0.94076  1.0000
  H   H701      1.0  0.14889  0.50420  0.58900  1.0000
  Fe  Fe48      1.0  0.07795  0.61799  0.24964  1.0000
  S   S91       1.0  0.04645  0.61468  0.25513  1.0000
  S   S92       1.0  0.09717  0.62086  0.28518  1.0000
  Fe  Fe49      1.0  0.07640  0.61918  0.18786  1.0000
  S   S93       1.0  0.04493  0.61650  0.18921  1.0000
  S   S94       1.0  0.09369  0.62062  0.14881  1.0000
  Fe  Fe50      1.0  0.05081  0.63603  0.22213  1.0000
  S   S95       1.0  0.03947  0.66061  0.22367  1.0000
  Fe  Fe51      1.0  0.04376  0.59551  0.22191  1.0000
  S   S96       1.0  0.02249  0.56846  0.22108  1.0000
  S   S97       1.0  0.08263  0.64060  0.21828  1.0000
  S   S98       1.0  0.07502  0.59693  0.21881  1.0000
  S   S99       1.0  0.07316  0.63799  0.46184  1.0000
  Fe  Fe52      1.0  0.07437  0.61337  0.44004  1.0000
  S   S100      1.0  0.05794  0.60638  0.40241  1.0000
  S   S101      1.0  0.05531  0.61203  0.03552  1.0000
  S   S102      1.0  0.10619  0.61826  0.44267  1.0000
  H   H702      1.0  0.05993  0.55363  0.29350  1.0000
  H   H703      1.0  0.07392  0.66462  0.15735  1.0000
  H   H704      1.0  0.07605  0.53964  0.10634  1.0000
  C   C400      1.0  0.06399  0.53565  0.09263  1.0000
  C   C401      1.0  0.04851  0.71739  0.37186  1.0000
  C   C402      1.0  0.08264  0.61787  0.11761  1.0000
  C   C403      1.0  0.06282  0.61451  0.11566  1.0000
  C   C404      1.0  0.05461  0.61278  0.09041  1.0000
  C   C405      1.0  0.06614  0.61435  0.06690  1.0000
  C   C406      1.0  0.08593  0.61750  0.06891  1.0000
  C   C407      1.0  0.09412  0.61922  0.09412  1.0000
  H   H705      1.0  0.05379  0.61323  0.13355  1.0000
  H   H706      1.0  0.03928  0.61022  0.08910  1.0000
  H   H707      1.0  0.09497  0.61865  0.05108  1.0000
  C   C408      1.0  0.08634  0.61610  0.31781  1.0000
  C   C409      1.0  0.06660  0.60879  0.32177  1.0000
  C   C410      1.0  0.05820  0.60570  0.34779  1.0000
  C   C411      1.0  0.06944  0.60968  0.37021  1.0000
  C   C412      1.0  0.08927  0.61662  0.36638  1.0000
  C   C413      1.0  0.09767  0.61990  0.34025  1.0000
  H   H708      1.0  0.05775  0.60533  0.30486  1.0000
  H   H709      1.0  0.04288  0.60015  0.35054  1.0000
  H   H710      1.0  0.09811  0.61958  0.38349  1.0000
  H   H711      1.0  0.11298  0.62541  0.33742  1.0000
  C   C414      1.0  0.02537  0.66113  0.25268  1.0000
  H   H712      1.0  0.02195  0.54579  0.01598  1.0000
  C   C415      1.0  0.16009  0.65812  0.98995  1.0000
  C   C416      1.0  0.04531  0.52996  0.27337  1.0000
  C   C417      1.0  0.03206  0.52311  0.25411  1.0000
  C   C418      1.0  0.02404  0.53484  0.23909  1.0000
  C   C419      1.0  0.02973  0.55342  0.24286  1.0000
  C   C420      1.0  0.04244  0.56009  0.26279  1.0000
  C   C421      1.0  0.04991  0.54833  0.27836  1.0000
  H   H713      1.0  0.02654  0.51965  0.40081  1.0000
  H   H714      1.0  0.07540  0.67758  0.12596  1.0000
  H   H715      1.0  0.04184  0.72364  0.38785  1.0000
  H   H716      1.0  0.05887  0.55239  0.13612  1.0000
  N   N23       1.0  0.05175  0.66951  0.35757  1.0000
  C   C422      1.0  0.05460  0.66102  0.33152  1.0000
  C   C423      1.0  0.03442  0.65794  0.37348  1.0000
  C   C424      1.0  0.04807  0.68754  0.35078  1.0000
  C   C425      1.0  0.06940  0.67300  0.37397  1.0000
  C   C426      1.0  0.07683  0.65654  0.38154  1.0000
  C   C427      1.0  0.07090  0.67206  0.31205  1.0000
  C   C428      1.0  0.04077  0.69688  0.37452  1.0000
  C   C429      1.0  0.02941  0.63729  0.37004  1.0000
  C   C430      1.0  0.07340  0.66122  0.28786  1.0000
  H   H717      1.0  0.04115  0.65831  0.32036  1.0000
  H   H718      1.0  0.05734  0.64763  0.33507  1.0000
  H   H719      1.0  0.03577  0.66034  0.39524  1.0000
  H   H720      1.0  0.02122  0.66177  0.36791  1.0000
  H   H721      1.0  0.03720  0.68614  0.33509  1.0000
  H   H722      1.0  0.06126  0.69706  0.34164  1.0000
  H   H723      1.0  0.08139  0.68334  0.36366  1.0000
  H   H724      1.0  0.06691  0.67892  0.39321  1.0000
  H   H725      1.0  0.08018  0.64989  0.36345  1.0000
  H   H726      1.0  0.06610  0.64680  0.39473  1.0000
  H   H727      1.0  0.06759  0.68452  0.30429  1.0000
  H   H728      1.0  0.08475  0.67569  0.32199  1.0000
  H   H729      1.0  0.04464  0.69244  0.39435  1.0000
  H   H730      1.0  0.02487  0.69343  0.37491  1.0000
  H   H731      1.0  0.02393  0.63410  0.34978  1.0000
  H   H732      1.0  0.04199  0.63198  0.37232  1.0000
  H   H733      1.0  0.05997  0.65733  0.27689  1.0000
  H   H734      1.0  0.08492  0.66938  0.27392  1.0000
  H   H735      1.0  0.07738  0.64882  0.29433  1.0000
  S   S103      1.0  0.04015  0.72370  0.10887  1.0000
  Fe  Fe53      1.0  0.00951  0.72465  0.10188  1.0000
  H   H736      1.0  0.04441  0.57167  0.08930  1.0000
  H   H737      1.0  0.10945  0.62175  0.09542  1.0000
  H   H738      1.0  0.08586  0.57021  0.09356  1.0000
  Fe  Fe54      1.0  0.10467  0.64223  0.46687  1.0000
  H   H739      1.0  0.05134  0.52820  0.10558  1.0000
  H   H740      1.0  0.07518  0.57984  0.06787  1.0000
  H   H741      1.0  0.06424  0.72137  0.37397  1.0000
  H   H742      1.0  0.07860  0.65516  0.12630  1.0000
  H   H743      1.0  0.04521  0.72265  0.35214  1.0000
  H   H744      1.0  0.03281  0.54902  0.10010  1.0000
  C   C431      1.0  0.07844  0.56709  0.07451  1.0000
  H   H745      1.0  0.06681  0.57579  0.12525  1.0000
  C   C432      1.0  0.09514  0.66218  0.39711  1.0000
  H   H746      1.0  0.10666  0.67183  0.38492  1.0000
  H   H747      1.0  0.10015  0.65012  0.40244  1.0000
  H   H748      1.0  0.04338  0.51457  0.19948  1.0000
  C   C433      1.0  0.09353  0.56340  0.05466  1.0000
  C   C434      1.0  0.05442  0.56365  0.12628  1.0000
  C   C435      1.0  0.07056  0.66389  0.13582  1.0000
  N   N24       1.0  0.06018  0.55226  0.07918  1.0000
  C   C436      1.0  0.03747  0.66776  0.14588  1.0000
  C   C437      1.0  0.04708  0.55906  0.09780  1.0000
  C   C438      1.0  0.03895  0.56781  0.14446  1.0000
  H   H749      1.0  0.11603  0.58657  0.06636  1.0000
  C   C439      1.0  0.04910  0.65592  0.13275  1.0000
  H   H750      1.0  0.04671  0.65474  0.11104  1.0000
  H   H751      1.0  0.09246  0.66846  0.41599  1.0000
  H   H752      1.0  0.12089  0.57722  0.03520  1.0000
  H   H753      1.0  0.10016  0.55329  0.06373  1.0000
  H   H754      1.0  0.04534  0.64237  0.14280  1.0000
  H   H755      1.0  0.04353  0.68190  0.13798  1.0000
  H   H756      1.0  0.08038  0.73072  0.11883  1.0000
  H   H757      1.0  0.03615  0.53685  0.05811  1.0000
  H   H758      1.0  0.04093  0.66800  0.16735  1.0000
  C   C440      1.0  0.04985  0.54741  0.05358  1.0000
  C   C441      1.0  0.04524  0.56309  0.03714  1.0000
  H   H759      1.0  0.01583  0.64888  0.10540  1.0000
  C   C442      1.0  0.13532  0.70439  0.31843  1.0000
  C   C443      1.0  0.09808  0.66476  0.05478  1.0000
  N   N25       1.0  0.14176  0.72443  0.32234  1.0000
  C   C444      1.0  0.11268  0.67461  0.03289  1.0000
  H   H760      1.0  0.12607  0.69530  0.05927  1.0000
  H   H761      1.0  0.08722  0.55857  0.03564  1.0000
  C   C445      1.0  0.10955  0.58051  0.04789  1.0000
  H   H762      1.0  0.05851  0.57370  0.03125  1.0000
  H   H763      1.0  0.10394  0.59050  0.03647  1.0000
  H   H764      1.0  0.11955  0.69988  0.31642  1.0000
  H   H765      1.0  0.07933  0.52702  0.05842  1.0000
  H   H766      1.0  0.05814  0.54124  0.03956  1.0000
  C   C446      1.0  0.08062  0.52961  0.21251  1.0000
  C   C447      1.0  0.06817  0.52117  0.07422  1.0000
  C   C448      1.0  0.13420  0.68978  0.44868  1.0000
  H   H767      1.0  0.03417  0.68207  0.09580  1.0000
  H   H768      1.0  0.13229  0.71916  0.02796  1.0000
  H   H769      1.0  0.11259  0.58728  0.28658  1.0000
  C   C449      1.0  0.10110  0.57620  0.27899  1.0000
  H   H770      1.0  0.09578  0.56594  0.29557  1.0000
  H   H771      1.0  0.12300  0.53801  0.24438  1.0000
  H   H772      1.0  0.12031  0.56211  0.26319  1.0000
  H   H773      1.0  0.08921  0.58184  0.27277  1.0000
  H   H774      1.0  0.08428  0.54491  0.25958  1.0000
  C   C450      1.0  0.10897  0.56787  0.25543  1.0000
  C   C451      1.0  0.10931  0.52993  0.23689  1.0000
  C   C452      1.0  0.09284  0.55355  0.24290  1.0000
  H   H775      1.0  0.06006  0.54618  0.21193  1.0000
  N   N26       1.0  0.09875  0.54178  0.22265  1.0000
  H   H776      1.0  0.08341  0.56125  0.23408  1.0000
  H   H777      1.0  0.11533  0.57894  0.24033  1.0000
  C   C453      1.0  0.05121  0.52521  0.18455  1.0000
  C   C454      1.0  0.11017  0.55297  0.19928  1.0000
  H   H778      1.0  0.07490  0.54891  0.18191  1.0000
  C   C455      1.0  0.06709  0.53901  0.19774  1.0000
  H   H779      1.0  0.10478  0.56504  0.19512  1.0000
  H   H780      1.0  0.13634  0.56596  0.22073  1.0000
  C   C456      1.0  0.13221  0.55954  0.20164  1.0000
  H   H781      1.0  0.13872  0.54808  0.20039  1.0000
  H   H782      1.0  0.10792  0.54532  0.18064  1.0000
  C   C457      1.0  0.13336  0.70767  0.45138  1.0000
  H   H783      1.0  0.08167  0.71245  0.19284  1.0000
  H   H784      1.0  0.00058  0.63144  0.38812  1.0000
  C   C458      1.0  0.06753  0.70815  0.18364  1.0000
  H   H785      1.0  0.04513  0.55096  0.99841  1.0000
  H   H786      1.0  0.01070  0.61244  0.38733  1.0000
  H   H787      1.0  0.04507  0.53601  0.34207  1.0000
  C   C459      1.0  0.05219  0.54049  0.36092  1.0000
  C   C460      1.0  0.06181  0.52614  0.37177  1.0000
  C   C461      1.0  0.13847  0.71199  0.01259  1.0000
  H   H788      1.0  0.07233  0.53244  0.38667  1.0000
  H   H789      1.0  0.04162  0.54312  0.37560  1.0000
  H   H790      1.0  0.07064  0.52353  0.35460  1.0000
  H   H791      1.0  0.07375  0.56434  0.37255  1.0000
  C   C462      1.0  0.06699  0.55845  0.35414  1.0000
  H   H792      1.0  0.07823  0.55663  0.33977  1.0000
  H   H793      1.0  0.10087  0.52322  0.25526  1.0000
  H   H794      1.0  0.07208  0.52097  0.22936  1.0000
  H   H795      1.0  0.20697  0.73942  0.34685  1.0000
  H   H796      1.0  0.11565  0.72820  0.30592  1.0000
  H   H797      1.0  0.10875  0.73362  0.25770  1.0000
  H   H798      1.0  0.05987  0.56811  0.34477  1.0000
  C   C463      1.0  0.13622  0.73224  0.27276  1.0000
  C   C464      1.0  0.11192  0.72368  0.38890  1.0000
  C   C465      1.0  0.14713  0.72218  0.43836  1.0000
  H   H799      1.0  0.10793  0.70991  0.35236  1.0000
  C   C466      1.0  0.11511  0.72360  0.35857  1.0000
  H   H800      1.0  0.16619  0.73263  0.00421  1.0000
  H   H801      1.0  0.11914  0.73706  0.39644  1.0000
  C   C467      1.0  0.00692  0.64603  0.29213  1.0000
  H   H802      1.0  0.12901  0.52023  0.99044  1.0000
  H   H803      1.0  0.13530  0.69412  0.36038  1.0000
  C   C468      1.0  0.13675  0.72914  0.35022  1.0000
  C   C469      1.0  0.15289  0.72622  0.99411  1.0000
  H   H804      1.0  0.14433  0.72321  0.36555  1.0000
  C   C470      1.0  0.13201  0.67206  0.33462  1.0000
  C   C471      1.0  0.14067  0.69193  0.34013  1.0000
  H   H805      1.0  0.13608  0.66339  0.35038  1.0000
  H   H806      1.0  0.05619  0.53474  0.42459  1.0000
  H   H807      1.0  0.01556  0.72045  0.46941  1.0000
  H   H808      1.0  0.07714  0.75185  0.04047  1.0000
  H   H809      1.0  0.02377  0.53113  0.44607  1.0000
  C   C472      1.0  0.00395  0.62662  0.14562  1.0000
  C   C473      1.0  0.03549  0.55641  0.01137  1.0000
  C   C474      1.0  0.14131  0.57323  0.17892  1.0000
  H   H810      1.0  0.13810  0.56725  0.15915  1.0000
  H   H811      1.0  0.16279  0.69431  0.99033  1.0000
  H   H812      1.0  0.13738  0.66878  0.31490  1.0000
  H   H813      1.0  0.00398  0.66735  0.19667  1.0000
  H   H814      1.0  0.13335  0.71800  0.26724  1.0000
  H   H815      1.0  0.14134  0.70112  0.29911  1.0000
  H   H816      1.0  0.01416  0.52965  0.22370  1.0000
  H   H817      1.0  0.11614  0.66880  0.33482  1.0000
  C   C475      1.0  0.05409  0.74622  0.26581  1.0000
  H   H818      1.0  0.02859  0.68972  0.24850  1.0000
  H   H819      1.0  0.05722  0.51879  0.16808  1.0000
  H   H820      1.0  0.15708  0.57744  0.18067  1.0000
  H   H821      1.0  0.13588  0.58541  0.17996  1.0000
  H   H822      1.0  0.03209  0.56782  0.00018  1.0000
  H   H823      1.0  0.08553  0.65584  0.04548  1.0000
  H   H824      1.0  0.01746  0.62482  0.13686  1.0000
  C   C476      1.0  0.01371  0.67235  0.06615  1.0000
  H   H825      1.0  0.15639  0.69416  0.34010  1.0000
  C   C477      1.0  0.14862  0.68648  0.43201  1.0000
  H   H826      1.0  0.14956  0.67280  0.42996  1.0000
  C   C478      1.0  0.00698  0.64479  0.15963  1.0000
  H   H827      1.0  0.09303  0.67452  0.06692  1.0000
  H   H828      1.0  0.10445  0.65629  0.06814  1.0000
  H   H829      1.0  0.13452  0.74834  0.30693  1.0000
  C   C479      1.0  0.01184  0.67816  0.28435  1.0000
  H   H830      1.0  0.01163  0.68757  0.10038  1.0000
  H   H831      1.0  0.04673  0.57438  0.26601  1.0000
  H   H832      1.0  0.01871  0.63261  0.26182  1.0000
  C   C480      1.0  0.13096  0.68639  0.04524  1.0000
  H   H833      1.0  0.12878  0.74116  0.23390  1.0000
  C   C481      1.0  0.03642  0.51158  0.40684  1.0000
  C   C482      1.0  0.19763  0.73813  0.32943  1.0000
  H   H834      1.0  0.22692  0.71969  0.46731  1.0000
  S   S104      1.0  0.00480  0.71497  0.33892  1.0000
  C   C483      1.0  0.07465  0.50677  0.09030  1.0000
  H   H835      1.0  0.11887  0.51952  0.19965  1.0000
  S   S105      1.0  0.05780  0.51635  0.28967  1.0000
  H   H836      1.0  0.03021  0.73380  0.29362  1.0000
  Fe  Fe55      1.0  0.07337  0.61449  0.99687  1.0000
  H   H837      1.0  0.13694  0.67738  0.05828  1.0000
  H   H838      1.0  0.02253  0.73807  0.19641  1.0000
  S   S106      1.0  0.10531  0.62448  0.99573  1.0000
  H   H839      1.0  0.04145  0.52996  0.47007  1.0000
  H   H840      1.0  0.03405  0.57918  0.13568  1.0000
  C   C484      1.0  0.07644  0.74323  0.12070  1.0000
  H   H841      1.0  0.14675  0.66048  0.02789  1.0000
  H   H842      1.0  0.03833  0.75168  0.06207  1.0000
  C   C485      1.0  0.16247  0.72000  0.06054  1.0000
  H   H843      1.0  0.02074  0.66204  0.05924  1.0000
  H   H844      1.0  0.12635  0.70588  0.99984  1.0000
  C   C486      1.0  0.01390  0.62712  0.39051  1.0000
  N   N27       1.0  0.01608  0.66204  0.14310  1.0000
  C   C487      1.0  0.13142  0.73368  0.30297  1.0000
  C   C488      1.0  0.00802  0.67676  0.15380  1.0000
  H   H845      1.0  0.16472  0.64620  0.99718  1.0000
  N   N28       1.0  0.05015  0.74698  0.21429  1.0000
  H   H846      1.0  0.00558  0.72846  0.00972  1.0000
  C   C489      1.0  0.15102  0.68614  0.00397  1.0000
  S   S107      1.0  0.00082  0.75044  0.09772  1.0000
  H   H847      1.0  0.10564  0.68289  0.02030  1.0000
  C   C490      1.0  0.04172  0.74836  0.24188  1.0000
  C   C491      1.0  0.01079  0.65991  0.11422  1.0000
  C   C492      1.0  0.23897  0.73043  0.47414  1.0000
  H   H848      1.0  0.15147  0.73907  0.26753  1.0000
  H   H849      1.0  0.06984  0.70439  0.16282  1.0000
  C   C493      1.0  0.16254  0.70102  0.41921  1.0000
  H   H850      1.0  0.19139  0.71824  0.46489  1.0000
  H   H851      1.0  0.00090  0.63378  0.30424  1.0000
  H   H852      1.0  0.04467  0.71935  0.17158  1.0000
  H   H853      1.0  0.12497  0.73256  0.07254  1.0000
  H   H854      1.0  0.16784  0.72393  0.29994  1.0000
  H   H855      1.0  0.20117  0.75131  0.31798  1.0000
  H   H856      1.0  0.05869  0.73363  0.26537  1.0000
  H   H857      1.0  0.08413  0.52028  0.19800  1.0000
  C   C494      1.0  0.05745  0.74363  0.11676  1.0000
  H   H858      1.0  0.01888  0.62943  0.41119  1.0000
  H   H859      1.0  0.10797  0.73325  0.34919  1.0000
  H   H860      1.0  0.06761  0.73532  0.17257  1.0000
  H   H861      1.0  0.06332  0.72564  0.22547  1.0000
  H   H862      1.0  0.15914  0.73172  0.05027  1.0000
  H   H863      1.0  0.19299  0.73354  0.05926  1.0000
  H   H864      1.0  0.14654  0.73588  0.44116  1.0000
  C   C495      1.0  0.16202  0.71894  0.42262  1.0000
  H   H865      1.0  0.17983  0.73762  0.08836  1.0000
  H   H866      1.0  0.16815  0.69465  0.05226  1.0000
  H   H867      1.0  0.02651  0.55580  0.14760  1.0000
  C   C496      1.0  0.04291  0.74564  0.29236  1.0000
  H   H868      1.0  0.01778  0.51754  0.35689  1.0000
  H   H869      1.0  0.13874  0.68157  0.99096  1.0000
  C   C497      1.0  0.12836  0.50660  0.23360  1.0000
  H   H870      1.0  0.14230  0.51688  0.23449  1.0000
  S   S108      1.0  0.06627  0.59513  0.47727  1.0000
  H   H871      1.0  0.00973  0.69082  0.29051  1.0000
  H   H872      1.0  0.04481  0.57169  0.16430  1.0000
  H   H873      1.0  0.05494  0.51422  0.06421  1.0000
  H   H874      1.0  0.18524  0.71618  0.08579  1.0000
  H   H875      1.0  0.02455  0.50953  0.46099  1.0000
  S   S109      1.0  0.11851  0.67257  0.46936  1.0000
  C   C498      1.0  0.15743  0.66937  0.01361  1.0000
  C   C499      1.0  0.02245  0.67752  0.26057  1.0000
  H   H876      1.0  0.08702  0.75112  0.23628  1.0000
  Fe  Fe56      1.0  0.09792  0.60090  0.48115  1.0000
  C   C500      1.0  0.16395  0.70544  0.04052  1.0000
  C   C501      1.0  0.10927  0.75345  0.47058  1.0000
  H   H877      1.0  0.00187  0.69578  0.21501  1.0000
  C   C502      1.0  0.16305  0.73166  0.31592  1.0000
  H   H878      1.0  0.24618  0.73838  0.45602  1.0000
  H   H879      1.0  0.02541  0.68501  0.18868  1.0000
  H   H880      1.0  0.03541  0.56922  0.04853  1.0000
  C   C503      1.0  0.01727  0.64539  0.26827  1.0000
  H   H881      1.0  0.00643  0.70704  0.18233  1.0000
  H   H882      1.0  0.17397  0.72002  0.35143  1.0000
  H   H883      1.0  0.03897  0.71797  0.21850  1.0000
  H   H884      1.0  0.11609  0.66422  0.02029  1.0000
  C   C504      1.0  0.12727  0.74736  0.07009  1.0000
  C   C505      1.0  0.01842  0.67678  0.09510  1.0000
  C   C506      1.0  0.17669  0.73285  0.33943  1.0000
  H   H885      1.0  0.00423  0.61085  0.18287  1.0000
  H   H886      1.0  0.12217  0.71032  0.46406  1.0000
  C   C507      1.0  0.05780  0.72349  0.18325  1.0000
  H   H887      1.0  0.16636  0.74572  0.30739  1.0000
  H   H888      1.0  0.05859  0.69613  0.19517  1.0000
  H   H889      1.0  0.04283  0.74263  0.03039  1.0000
  H   H890      1.0  0.20062  0.72769  0.31651  1.0000
  C   C508      1.0  0.18132  0.72719  0.07427  1.0000
  H   H891      1.0  0.01513  0.68999  0.14347  1.0000
  H   H892      1.0  0.09638  0.72068  0.39413  1.0000
  H   H893      1.0  0.04079  0.53199  0.17617  1.0000
  C   C509      1.0  0.01014  0.67988  0.18421  1.0000
  H   H894      1.0  0.15121  0.71438  0.07639  1.0000
  H   H895      1.0  0.17480  0.74349  0.35281  1.0000
  H   H896      1.0  0.17634  0.71129  0.02628  1.0000
  H   H897      1.0  0.23542  0.75353  0.40764  1.0000
  C   C510      1.0  0.05248  0.72819  0.21184  1.0000
  H   H898      1.0  0.14199  0.74401  0.35231  1.0000
  H   H899      1.0  0.21375  0.74032  0.44619  1.0000
  H   H900      1.0  0.17403  0.69837  0.40711  1.0000
  C   C511      1.0  0.00051  0.73322  0.99151  1.0000
  H   H901      1.0  0.01525  0.64397  0.17785  1.0000
  H   H902      1.0  0.11757  0.71319  0.39896  1.0000
  S   S110      1.0  0.18091  0.73683  0.40844  1.0000
  H   H903      1.0  0.01897  0.68472  0.05296  1.0000
  N   N29       1.0  0.04866  0.50869  0.38331  1.0000
  N   N30       1.0  0.14613  0.69750  0.02559  1.0000
  C   C512      1.0  0.12408  0.74113  0.25527  1.0000
  C   C513      1.0  0.00010  0.69389  0.19324  1.0000
  H   H904      1.0  0.17130  0.67352  0.02352  1.0000
  H   H905      1.0  0.09795  0.75223  0.45577  1.0000
  C   C514      1.0  0.03334  0.52300  0.45330  1.0000
  C   C515      1.0  0.00426  0.66239  0.30028  1.0000
  H   H906      1.0  0.25806  0.71305  0.47171  1.0000
  H   H907      1.0  0.02836  0.50889  0.25034  1.0000
  S   S111      1.0  0.00433  0.72309  0.41551  1.0000
  H   H908      1.0  0.08832  0.51281  0.09992  1.0000
  H   H909      1.0  0.00059  0.66286  0.46201  1.0000
  H   H910      1.0  0.04153  0.74915  0.17346  1.0000
  H   H911      1.0  0.07230  0.50481  0.40624  1.0000
  C   C516      1.0  0.04730  0.52103  0.43083  1.0000
  H   H912      1.0  0.05662  0.51315  0.43952  1.0000
  C   C517      1.0  0.00488  0.72793  0.46950  1.0000
  C   C518      1.0  0.10955  0.75153  0.05875  1.0000
  H   H913      1.0  0.05212  0.74452  0.30930  1.0000
  C   C519      1.0  0.11362  0.51468  0.22036  1.0000
  H   H914      1.0  0.13023  0.75323  0.08999  1.0000
  H   H915      1.0  0.14239  0.74956  0.00201  1.0000
  H   H916      1.0  0.10726  0.74553  0.03900  1.0000
  C   C520      1.0  0.03576  0.74946  0.19426  1.0000
  H   H917      1.0  0.09062  0.74703  0.20183  1.0000
  H   H918      1.0  0.02750  0.73827  0.24491  1.0000
  C   C521      1.0  0.09907  0.51906  0.99366  1.0000
  C   C522      1.0  0.21466  0.75291  0.45674  1.0000
  H   H919      1.0  0.07057  0.52266  0.99526  1.0000
  C   C523      1.0  0.11848  0.52786  0.98920  1.0000
  H   H920      1.0  0.10697  0.74046  0.48224  1.0000
  H   H921      1.0  0.09717  0.74461  0.07228  1.0000
  C   C524      1.0  0.08563  0.52925  0.99187  1.0000
  H   H922      1.0  0.13990  0.75299  0.05629  1.0000
  Fe  Fe57      1.0  0.06617  0.61589  0.74650  1.0000
  S   S112      1.0  0.03414  0.60941  0.75011  1.0000
  S   S113      1.0  0.08621  0.61739  0.78064  1.0000
  Fe  Fe58      1.0  0.06705  0.62138  0.68516  1.0000
  S   S114      1.0  0.03529  0.61603  0.68413  1.0000
  S   S115      1.0  0.08581  0.62463  0.64754  1.0000
  Fe  Fe59      1.0  0.03784  0.63281  0.72033  1.0000
  S   S116      1.0  0.02388  0.65562  0.72295  1.0000
  Fe  Fe60      1.0  0.03483  0.59330  0.71361  1.0000
  S   S117      1.0  0.01805  0.56527  0.70498  1.0000
  S   S118      1.0  0.06994  0.64029  0.71877  1.0000
  S   S119      1.0  0.06655  0.59766  0.71268  1.0000
  Fe  Fe61      1.0  0.10239  0.64098  0.95851  1.0000
  S   S120      1.0  0.07017  0.63174  0.96105  1.0000
  S   S121      1.0  0.10998  0.67193  0.95427  1.0000
  C   C525      1.0  0.08249  0.67758  0.51544  1.0000
  S   S122      1.0  0.07225  0.59067  0.97176  1.0000
  Fe  Fe62      1.0  0.07305  0.60912  0.93566  1.0000
  S   S123      1.0  0.05413  0.59932  0.90102  1.0000
  H   H923      1.0  0.01402  0.68523  0.74744  1.0000
  S   S124      1.0  0.04982  0.62511  0.53376  1.0000
  S   S125      1.0  0.10498  0.61891  0.93109  1.0000
  S   S126      1.0  0.17765  0.73799  0.90629  1.0000
  H   H924      1.0  0.04646  0.54946  0.78611  1.0000
  C   C526      1.0  0.09076  0.51721  0.51574  1.0000
  C   C527      1.0  0.03212  0.51823  0.84826  1.0000
  H   H925      1.0  0.10643  0.57308  0.89657  1.0000
  C   C528      1.0  0.10949  0.52739  0.51948  1.0000
  H   H926      1.0  0.07236  0.50794  0.62305  1.0000
  C   C529      1.0  0.12849  0.68958  0.93843  1.0000
  C   C530      1.0  0.14622  0.68720  0.93019  1.0000
  C   C531      1.0  0.16099  0.70209  0.92002  1.0000
  C   C532      1.0  0.15819  0.71948  0.91771  1.0000
  C   C533      1.0  0.14026  0.72173  0.92525  1.0000
  C   C534      1.0  0.12558  0.70690  0.93572  1.0000
  H   H927      1.0  0.14871  0.67399  0.93219  1.0000
  H   H928      1.0  0.17477  0.70017  0.91417  1.0000
  H   H929      1.0  0.13787  0.73498  0.92372  1.0000
  H   H930      1.0  0.08544  0.66473  0.50991  1.0000
  H   H931      1.0  0.07313  0.55183  0.49205  1.0000
  S   S127      1.0  0.04274  0.73104  0.61061  1.0000
  H   H932      1.0  0.08670  0.54365  0.88303  1.0000
  C   C535      1.0  0.09227  0.56699  0.90683  1.0000
  H   H933      1.0  0.11196  0.70892  0.94217  1.0000
  H   H934      1.0  0.13161  0.53613  0.81371  1.0000
  C   C536      1.0  0.07455  0.62356  0.61673  1.0000
  C   C537      1.0  0.05871  0.63043  0.61318  1.0000
  C   C538      1.0  0.05106  0.63074  0.58768  1.0000
  C   C539      1.0  0.05899  0.62388  0.56581  1.0000
  C   C540      1.0  0.07434  0.61640  0.56972  1.0000
  C   C541      1.0  0.08229  0.61654  0.59495  1.0000
  H   H935      1.0  0.05276  0.63602  0.62985  1.0000
  H   H936      1.0  0.03912  0.63644  0.58485  1.0000
  H   H937      1.0  0.08012  0.61048  0.55332  1.0000
  H   H938      1.0  0.09448  0.61113  0.59759  1.0000
  C   C542      1.0  0.07704  0.61196  0.81388  1.0000
  C   C543      1.0  0.05749  0.60468  0.81979  1.0000
  C   C544      1.0  0.05071  0.60045  0.84653  1.0000
  C   C545      1.0  0.06338  0.60363  0.86757  1.0000
  C   C546      1.0  0.08296  0.61071  0.86158  1.0000
  C   C547      1.0  0.08975  0.61481  0.83484  1.0000
  H   H939      1.0  0.04758  0.60220  0.80380  1.0000
  H   H940      1.0  0.03555  0.59486  0.85093  1.0000
  H   H941      1.0  0.09289  0.61312  0.87749  1.0000
  H   H942      1.0  0.10491  0.62037  0.83042  1.0000
  C   C548      1.0  0.01278  0.65713  0.75416  1.0000
  H   H943      1.0  0.14476  0.64265  0.56880  1.0000
  C   C549      1.0  0.05760  0.72196  0.93334  1.0000
  C   C550      1.0  0.07469  0.72751  0.91328  1.0000
  H   H944      1.0  0.13505  0.64387  0.53630  1.0000
  H   H945      1.0  0.02495  0.70081  0.88252  1.0000
  H   H946      1.0  0.09323  0.57049  0.92818  1.0000
  C   C551      1.0  0.03963  0.52719  0.76006  1.0000
  C   C552      1.0  0.03118  0.52093  0.73623  1.0000
  C   C553      1.0  0.02384  0.53243  0.71962  1.0000
  C   C554      1.0  0.02543  0.55022  0.72658  1.0000
  C   C555      1.0  0.03364  0.55628  0.75055  1.0000
  C   C556      1.0  0.04034  0.54468  0.76747  1.0000
  S   S128      1.0  0.10020  0.62542  0.50550  1.0000
  H   H947      1.0  0.03470  0.56991  0.75620  1.0000
  N   N31       1.0  0.04593  0.65659  0.86222  1.0000
  C   C557      1.0  0.04763  0.65198  0.83334  1.0000
  C   C558      1.0  0.03634  0.63951  0.87838  1.0000
  C   C559      1.0  0.03440  0.67019  0.86393  1.0000
  C   C560      1.0  0.06528  0.66465  0.87336  1.0000
  C   C561      1.0  0.07997  0.65335  0.87071  1.0000
  C   C562      1.0  0.05962  0.66733  0.81408  1.0000
  C   C563      1.0  0.02849  0.67420  0.89270  1.0000
  C   C564      1.0  0.01539  0.63025  0.87150  1.0000
  S   S129      1.0  0.05063  0.51418  0.78037  1.0000
  C   C565      1.0  0.09972  0.66393  0.87900  1.0000
  C   C566      1.0  0.06171  0.66046  0.78615  1.0000
  H   H948      1.0  0.03322  0.64770  0.82483  1.0000
  H   H949      1.0  0.05346  0.64005  0.83171  1.0000
  H   H950      1.0  0.04441  0.62935  0.87546  1.0000
  H   H951      1.0  0.03688  0.64174  0.90024  1.0000
  H   H952      1.0  0.04247  0.68329  0.85405  1.0000
  H   H953      1.0  0.07180  0.67840  0.86427  1.0000
  H   H954      1.0  0.06380  0.66662  0.89517  1.0000
  H   H955      1.0  0.08161  0.64932  0.84993  1.0000
  H   H956      1.0  0.07540  0.64107  0.88415  1.0000
  H   H957      1.0  0.05253  0.67842  0.81218  1.0000
  H   H958      1.0  0.07427  0.67285  0.82107  1.0000
  H   H959      1.0  0.04124  0.67991  0.90442  1.0000
  H   H960      1.0  0.03842  0.71003  0.67493  1.0000
  H   H961      1.0  0.06783  0.53953  0.70988  1.0000
  H   H962      1.0  0.08097  0.71588  0.91165  1.0000
  H   H963      1.0  0.09829  0.54151  0.91382  1.0000
  H   H964      1.0  0.09889  0.66850  0.89965  1.0000
  H   H965      1.0  0.10965  0.65516  0.87852  1.0000
  H   H966      1.0  0.10561  0.67583  0.86510  1.0000
  H   H967      1.0  0.04749  0.65456  0.77796  1.0000
  H   H968      1.0  0.06967  0.67175  0.77233  1.0000
  H   H969      1.0  0.06974  0.65002  0.78686  1.0000
  C   C567      1.0  0.02418  0.52647  0.62366  1.0000
  H   H970      1.0  0.01728  0.52765  0.70123  1.0000
  Fe  Fe63      1.0  0.10396  0.60129  0.96869  1.0000
  C   C568      1.0  0.02485  0.68029  0.63308  1.0000
  C   C569      1.0  0.10179  0.73553  0.86815  1.0000
  H   H971      1.0  0.06946  0.53990  0.94081  1.0000
  H   H972      1.0  0.01509  0.60374  0.88871  1.0000
  H   H973      1.0  0.05176  0.66510  0.51876  1.0000
  H   H974      1.0  0.03877  0.53639  0.88019  1.0000
  H   H975      1.0  0.03688  0.72520  0.73077  1.0000
  C   C570      1.0  0.04278  0.72660  0.70982  1.0000
  H   H976      1.0  0.11165  0.66239  0.52984  1.0000
  H   H977      1.0  0.06148  0.55039  0.59342  1.0000
  H   H978      1.0  0.06004  0.71976  0.87764  1.0000
  C   C571      1.0  0.03286  0.70945  0.69599  1.0000
  H   H979      1.0  0.08152  0.57293  0.89744  1.0000
  H   H980      1.0  0.02348  0.69431  0.63229  1.0000
  C   C572      1.0  0.12840  0.53084  0.79353  1.0000
  H   H981      1.0  0.13367  0.69851  0.54950  1.0000
  C   C573      1.0  0.04858  0.55642  0.54607  1.0000
  N   N32       1.0  0.04523  0.55961  0.62433  1.0000
  C   C574      1.0  0.02767  0.56654  0.62675  1.0000
  C   C575      1.0  0.04043  0.54059  0.63638  1.0000
  C   C576      1.0  0.06040  0.57105  0.64110  1.0000
  C   C577      1.0  0.03104  0.58702  0.62068  1.0000
  C   C578      1.0  0.07879  0.56458  0.64421  1.0000
  C   C579      1.0  0.09520  0.57941  0.65427  1.0000
  Fe  Fe64      1.0  0.06892  0.62046  0.49947  1.0000
  H   H982      1.0  0.05310  0.53506  0.63509  1.0000
  H   H983      1.0  0.03659  0.54063  0.65818  1.0000
  H   H984      1.0  0.05442  0.57209  0.66166  1.0000
  H   H985      1.0  0.06513  0.58510  0.63243  1.0000
  H   H986      1.0  0.03846  0.59462  0.63743  1.0000
  H   H987      1.0  0.04005  0.59150  0.60212  1.0000
  H   H988      1.0  0.08375  0.56034  0.62493  1.0000
  H   H989      1.0  0.07591  0.55299  0.65899  1.0000
  H   H990      1.0  0.03316  0.57028  0.57089  1.0000
  C   C580      1.0  0.19698  0.73753  0.49735  1.0000
  H   H991      1.0  0.17115  0.70630  0.52007  1.0000
  H   H992      1.0  0.02124  0.66595  0.85239  1.0000
  C   C581      1.0  0.99987  0.73426  0.94252  1.0000
  H   H993      1.0  0.00298  0.52259  0.96452  1.0000
  H   H994      1.0  0.09963  0.59079  0.63911  1.0000
  H   H995      1.0  0.09082  0.58454  0.67322  1.0000
  H   H996      1.0  0.10770  0.57403  0.65792  1.0000
  C   C582      1.0  0.03587  0.52169  0.87777  1.0000
  H   H997      1.0  0.03781  0.53350  0.95681  1.0000
  C   C583      1.0  0.13226  0.72954  0.52475  1.0000
  H   H998      1.0  0.00769  0.67217  0.68131  1.0000
  C   C584      1.0  0.13591  0.73613  0.85363  1.0000
  H   H999      1.0  0.02205  0.68116  0.54877  1.0000
  C   C585      1.0  0.08327  0.54506  0.49978  1.0000
  H   H1000     1.0  0.08739  0.74578  0.82164  1.0000
  C   C586      1.0  0.05322  0.56057  0.59581  1.0000
  H   H1001     1.0  0.14159  0.53484  0.78037  1.0000
  C   C587      1.0  0.05743  0.74125  0.83088  1.0000
  C   C588      1.0  0.05116  0.73459  0.80330  1.0000
  H   H1002     1.0  0.05724  0.54564  0.91322  1.0000
  H   H1003     1.0  0.03821  0.55536  0.52993  1.0000
  H   H1004     1.0  0.14141  0.73983  0.87365  1.0000
  H   H1005     1.0  0.02866  0.52397  0.60311  1.0000
  N   N33       1.0  0.10343  0.56788  0.76969  1.0000
  C   C589      1.0  0.08856  0.55653  0.75257  1.0000
  C   C590      1.0  0.09340  0.57263  0.79418  1.0000
  C   C591      1.0  0.11259  0.58526  0.75377  1.0000
  C   C592      1.0  0.11872  0.55876  0.77731  1.0000
  C   C593      1.0  0.11250  0.53784  0.78148  1.0000
  C   C594      1.0  0.09585  0.55249  0.72457  1.0000
  C   C595      1.0  0.12805  0.59951  0.76791  1.0000
  C   C596      1.0  0.08418  0.55710  0.81485  1.0000
  C   C597      1.0  0.07228  0.56343  0.83624  1.0000
  H   H1006     1.0  0.01716  0.70771  0.69620  1.0000
  H   H1007     1.0  0.09790  0.72061  0.86645  1.0000
  C   C598      1.0  0.13785  0.61525  0.74846  1.0000
  H   H1008     1.0  0.07695  0.56326  0.74901  1.0000
  H   H1009     1.0  0.08131  0.54357  0.76315  1.0000
  H   H1010     1.0  0.10340  0.58265  0.80589  1.0000
  H   H1011     1.0  0.08209  0.57913  0.78793  1.0000
  H   H1012     1.0  0.10141  0.59189  0.74732  1.0000
  H   H1013     1.0  0.11977  0.58248  0.73507  1.0000
  H   H1014     1.0  0.13056  0.56178  0.76169  1.0000
  H   H1015     1.0  0.12549  0.56450  0.79587  1.0000
  H   H1016     1.0  0.10923  0.53135  0.76213  1.0000
  H   H1017     1.0  0.09956  0.53291  0.79476  1.0000
  H   H1018     1.0  0.09734  0.56436  0.71061  1.0000
  H   H1019     1.0  0.11001  0.54963  0.72533  1.0000
  H   H1020     1.0  0.13921  0.59356  0.77596  1.0000
  H   H1021     1.0  0.12166  0.60538  0.78457  1.0000
  H   H1022     1.0  0.07461  0.54552  0.80550  1.0000
  H   H1023     1.0  0.09549  0.55254  0.82522  1.0000
  H   H1024     1.0  0.06629  0.55237  0.85136  1.0000
  H   H1025     1.0  0.08129  0.57495  0.84657  1.0000
  H   H1026     1.0  0.06019  0.56748  0.82714  1.0000
  C   C599      1.0  0.08684  0.54653  0.90455  1.0000
  H   H1027     1.0  0.14769  0.74188  0.83851  1.0000
  H   H1028     1.0  0.08014  0.73776  0.63218  1.0000
  H   H1029     1.0  0.05380  0.54410  0.54649  1.0000
  C   C600      1.0  0.06724  0.53765  0.91916  1.0000
  H   H1030     1.0  0.14532  0.61057  0.73159  1.0000
  H   H1031     1.0  0.12715  0.62186  0.74043  1.0000
  H   H1032     1.0  0.14855  0.62541  0.75912  1.0000
  N   N34       1.0  0.10468  0.68184  0.55571  1.0000
  C   C601      1.0  0.10475  0.68610  0.58494  1.0000
  C   C602      1.0  0.11952  0.69668  0.54046  1.0000
  C   C603      1.0  0.08489  0.68026  0.54583  1.0000
  C   C604      1.0  0.10964  0.66426  0.55160  1.0000
  C   C605      1.0  0.12804  0.66211  0.56485  1.0000
  C   C606      1.0  0.09183  0.67129  0.60420  1.0000
  C   C607      1.0  0.11561  0.71555  0.53921  1.0000
  C   C608      1.0  0.13205  0.64423  0.55816  1.0000
  C   C609      1.0  0.09395  0.67654  0.63334  1.0000
  H   H1033     1.0  0.09975  0.69838  0.58783  1.0000
  H   H1034     1.0  0.11957  0.68941  0.59221  1.0000
  H   H1035     1.0  0.12175  0.69290  0.51955  1.0000
  H   H1036     1.0  0.07986  0.69218  0.55120  1.0000
  H   H1037     1.0  0.07444  0.66845  0.55602  1.0000
  H   H1038     1.0  0.09755  0.65261  0.55863  1.0000
  H   H1039     1.0  0.12669  0.66234  0.58697  1.0000
  H   H1040     1.0  0.14073  0.67300  0.55769  1.0000
  H   H1041     1.0  0.07654  0.66915  0.59971  1.0000
  H   H1042     1.0  0.09556  0.65834  0.60268  1.0000
  H   H1043     1.0  0.10246  0.71530  0.52831  1.0000
  H   H1044     1.0  0.11395  0.72032  0.55955  1.0000
  H   H1045     1.0  0.03493  0.67886  0.64878  1.0000
  H   H1046     1.0  0.11966  0.63273  0.56452  1.0000
  H   H1047     1.0  0.08440  0.66574  0.64655  1.0000
  H   H1048     1.0  0.10889  0.67814  0.63936  1.0000
  H   H1049     1.0  0.08988  0.68929  0.63629  1.0000
  C   C610      1.0  0.02976  0.52333  0.94328  1.0000
  H   H1050     1.0  0.06383  0.57382  0.59103  1.0000
  C   C611      1.0  0.03884  0.55829  0.57298  1.0000
  H   H1051     1.0  0.05821  0.72719  0.71014  1.0000
  C   C612      1.0  0.08180  0.53648  0.71271  1.0000
  Fe  Fe65      1.0  0.01176  0.73008  0.60231  1.0000
  H   H1052     1.0  0.16793  0.69394  0.48984  1.0000
  H   H1053     1.0  0.01482  0.62543  0.85082  1.0000
  H   H1054     1.0  0.06084  0.56839  0.54115  1.0000
  H   H1055     1.0  0.12954  0.74304  0.52464  1.0000
  H   H1056     1.0  0.03566  0.69755  0.70662  1.0000
  N   N35       1.0  0.08418  0.74232  0.86498  1.0000
  C   C613      1.0  0.06850  0.73276  0.88530  1.0000
  H   H1057     1.0  0.07595  0.72334  0.83381  1.0000
  N   N36       1.0  0.05872  0.51781  0.91535  1.0000
  H   H1058     1.0  0.05803  0.74092  0.88830  1.0000
  C   C614      1.0  0.11892  0.74377  0.84807  1.0000
  C   C615      1.0  0.01951  0.50842  0.63961  1.0000
  H   H1059     1.0  0.04914  0.71980  0.80272  1.0000
  H   H1060     1.0  0.14582  0.73041  0.53503  1.0000
  H   H1061     1.0  0.05133  0.73346  0.93657  1.0000
  C   C616      1.0  0.07705  0.73779  0.83730  1.0000
  C   C617      1.0  0.00955  0.67356  0.76113  1.0000
  H   H1062     1.0  0.04596  0.73422  0.84570  1.0000
  H   H1063     1.0  0.19697  0.73567  0.51947  1.0000
  C   C618      1.0  0.00654  0.72839  0.96642  1.0000
  H   H1064     1.0  0.05831  0.68933  0.51231  1.0000
  C   C619      1.0  0.07393  0.50812  0.92086  1.0000
  C   C620      1.0  0.05264  0.51435  0.88697  1.0000
  C   C621      1.0  0.10224  0.55509  0.50340  1.0000
  H   H1065     1.0  0.03729  0.73746  0.79901  1.0000
  H   H1066     1.0  0.15366  0.75004  0.96920  1.0000
  H   H1067     1.0  0.07952  0.52420  0.72611  1.0000
  H   H1068     1.0  0.00875  0.62927  0.76640  1.0000
  H   H1069     1.0  0.08756  0.53369  0.69300  1.0000
  C   C622      1.0  0.17165  0.70764  0.49785  1.0000
  H   H1070     1.0  0.22938  0.73550  0.51406  1.0000
  H   H1071     1.0  0.03096  0.67769  0.61348  1.0000
  H   H1072     1.0  0.01635  0.55940  0.61365  1.0000
  C   C623      1.0  0.01219  0.59208  0.61778  1.0000
  C   C624      1.0  0.00678  0.61389  0.89042  1.0000
  S   S130      1.0  0.00857  0.72879  0.91127  1.0000
  H   H1073     1.0  0.00456  0.58555  0.60035  1.0000
  H   H1074     1.0  0.06228  0.71767  0.95285  1.0000
  H   H1075     1.0  0.02000  0.52353  0.84208  1.0000
  H   H1076     1.0  0.02649  0.54637  0.57659  1.0000
  H   H1077     1.0  0.13181  0.72123  0.85261  1.0000
  H   H1078     1.0  0.12994  0.73569  0.97626  1.0000
  C   C625      1.0  0.00679  0.64208  0.77188  1.0000
  C   C626      1.0  0.01657  0.68777  0.89208  1.0000
  C   C627      1.0  0.06203  0.67664  0.50777  1.0000
  H   H1079     1.0  0.04489  0.52508  0.83541  1.0000
  H   H1080     1.0  0.02251  0.51460  0.88930  1.0000
  H   H1081     1.0  0.11508  0.74077  0.82714  1.0000
  H   H1082     1.0  0.02357  0.74151  0.69637  1.0000
  H   H1083     1.0  0.09221  0.68879  0.50322  1.0000
  H   H1084     1.0  0.13397  0.72603  0.50368  1.0000
  C   C628      1.0  0.01186  0.66782  0.55388  1.0000
  H   H1085     1.0  0.06190  0.74156  0.78744  1.0000
  C   C629      1.0  0.07746  0.75070  0.62773  1.0000
  H   H1086     1.0  0.02593  0.53073  0.92589  1.0000
  H   H1087     1.0  0.12978  0.55348  0.51624  1.0000
  H   H1088     1.0  0.01634  0.71999  0.96552  1.0000
  H   H1089     1.0  0.18501  0.74367  0.49305  1.0000
  H   H1090     1.0  0.16079  0.71450  0.49141  1.0000
  H   H1091     1.0  0.12373  0.51588  0.79558  1.0000
  C   C630      1.0  0.01119  0.51303  0.95828  1.0000
  H   H1092     1.0  0.08551  0.73861  0.92180  1.0000
  H   H1093     1.0  0.03045  0.50736  0.73056  1.0000
  H   H1094     1.0  0.08147  0.55588  0.98423  1.0000
  H   H1095     1.0  0.02112  0.56363  0.64744  1.0000
  C   C631      1.0  0.00058  0.67498  0.78590  1.0000
  H   H1096     1.0  0.00294  0.58790  0.63628  1.0000
  C   C632      1.0  0.11514  0.54602  0.51339  1.0000
  H   H1097     1.0  0.01720  0.65710  0.54455  1.0000
  H   H1098     1.0  0.01513  0.60691  0.61451  1.0000
  H   H1099     1.0  0.11987  0.52080  0.52690  1.0000
  C   C633      1.0  0.04207  0.51045  0.93523  1.0000
  H   H1100     1.0  0.01076  0.53074  0.62305  1.0000
  H   H1101     1.0  0.01371  0.50975  0.66003  1.0000
  H   H1102     1.0  0.01967  0.66187  0.90362  1.0000
  C   C634      1.0  0.00529  0.66695  0.63894  1.0000
  S   S131      1.0  0.12073  0.58041  0.97391  1.0000
  H   H1103     1.0  0.01225  0.69015  0.91284  1.0000
  H   H1104     1.0  0.05663  0.51663  0.58377  1.0000
  H   H1105     1.0  0.06498  0.51942  0.87246  1.0000
  S   S132      1.0  0.00374  0.71370  0.83874  1.0000
  H   H1106     1.0  0.00339  0.68251  0.88096  1.0000
  C   C635      1.0  0.12457  0.54647  0.98316  1.0000
  S   S133      1.0  0.99948  0.74301  0.77815  1.0000
  H   H1107     1.0  0.13969  0.55292  0.97992  1.0000
  C   C636      1.0  0.07752  0.52613  0.50597  1.0000
  H   H1108     1.0  0.15690  0.71989  0.97607  1.0000
  H   H1109     1.0  0.00611  0.73188  0.51198  1.0000
  H   H1110     1.0  0.24647  0.71252  0.50422  1.0000
  H   H1111     1.0  0.11420  0.51041  0.68662  1.0000
  C   C637      1.0  0.11141  0.55681  0.98128  1.0000
  H   H1112     1.0  0.00371  0.68219  0.50734  1.0000
  H   H1113     1.0  0.00606  0.63950  0.87314  1.0000
  H   H1114     1.0  0.20167  0.71070  0.49427  1.0000
  H   H1115     1.0  0.10753  0.73781  0.88838  1.0000
  S   S134      1.0  0.11129  0.57878  0.49597  1.0000
  H   H1116     1.0  0.04636  0.71056  0.92604  1.0000
  H   H1117     1.0  0.08089  0.51260  0.93993  1.0000
  H   H1118     1.0  0.08725  0.50994  0.59287  1.0000
  H   H1119     1.0  0.08547  0.51170  0.90483  1.0000
  H   H1120     1.0  0.00733  0.65320  0.63855  1.0000
  C   C638      1.0  0.23245  0.74286  0.49414  1.0000
  H   H1121     1.0  0.06071  0.67456  0.48598  1.0000
  H   H1122     1.0  0.00668  0.61797  0.91149  1.0000
  C   C639      1.0  0.19156  0.71820  0.48704  1.0000
  H   H1123     1.0  0.01123  0.66539  0.57592  1.0000
  H   H1124     1.0  0.06299  0.51848  0.50301  1.0000
  C   C640      1.0  0.25325  0.72142  0.48665  1.0000
  C   C641      1.0  0.03931  0.74346  0.69498  1.0000
  C   C642      1.0  0.05989  0.75140  0.61725  1.0000
  N   N37       1.0  0.21571  0.75001  0.48660  1.0000
  H   H1125     1.0  0.04315  0.74283  0.67331  1.0000
  H   H1126     1.0  0.12050  0.75145  0.59116  1.0000
  H   H1127     1.0  0.08574  0.75134  0.51346  1.0000
  H   H1128     1.0  0.10369  0.75074  0.54793  1.0000
  H   H1129     1.0  0.17113  0.66620  0.97527  1.0000
  H   H1130     1.0  0.14639  0.65325  0.97974  1.0000
  H   H1131     1.0  0.04345  0.75219  0.74654  1.0000
  C   C643      1.0  0.99949  0.73435  0.49372  1.0000
  H   H1132     1.0  0.99887  0.64035  0.68166  1.0000
  H   H1133     1.0  0.99814  0.68770  0.79119  1.0000
  H   H1134     1.0  0.03172  0.75269  0.55307  1.0000
  H   H1135     1.0  0.04720  0.50628  0.95459  1.0000
  C   C644      1.0  0.14410  0.74127  0.98489  1.0000
  H   H1136     1.0  0.26599  0.73172  0.49303  1.0000
  H   H1137     1.0  0.01428  0.50575  0.97646  1.0000
  H   H1138     1.0  0.24540  0.75418  0.49682  1.0000
  C   C645      1.0  0.09180  0.54810  0.98553  1.0000
  Fe  Fe66      1.0  0.30479  0.94636  0.16759  1.0000
  S   S135      1.0  0.31625  0.92233  0.17327  1.0000
  S   S136      1.0  0.29431  0.95754  0.20460  1.0000
  Fe  Fe67      1.0  0.31114  0.94751  0.10628  1.0000
  C   C646      1.0  0.21208  0.85448  0.46804  1.0000
  S   S137      1.0  0.30719  0.96190  0.06710  1.0000
  Fe  Fe68      1.0  0.29886  0.91163  0.13810  1.0000
  S   S138      1.0  0.28153  0.88228  0.13773  1.0000
  C   C647      1.0  0.29883  0.99698  0.30004  1.0000
  S   S139      1.0  0.28574  0.93478  0.13426  1.0000
  C   C648      1.0  0.20578  0.83348  0.46899  1.0000
  Fe  Fe69      1.0  0.17381  0.82496  0.14589  1.0000
  S   S140      1.0  0.18829  0.80266  0.14576  1.0000
  S   S141      1.0  0.19038  0.85465  0.14518  1.0000
  Fe  Fe70      1.0  0.13357  0.79789  0.14414  1.0000
  S   S142      1.0  0.14582  0.77410  0.14456  1.0000
  S   S143      1.0  0.10192  0.79519  0.13900  1.0000
  Fe  Fe71      1.0  0.16489  0.78867  0.17602  1.0000
  S   S144      1.0  0.17250  0.77491  0.21343  1.0000
  Fe  Fe72      1.0  0.16759  0.79084  0.11441  1.0000
  S   S145      1.0  0.17574  0.77906  0.07622  1.0000
  S   S146      1.0  0.15123  0.81158  0.17764  1.0000
  S   S147      1.0  0.15445  0.81401  0.11270  1.0000
  Fe  Fe73      1.0  0.16480  0.79088  0.36699  1.0000
  S   S148      1.0  0.19281  0.78368  0.36780  1.0000
  S   S149      1.0  0.14750  0.79202  0.33031  1.0000
  Fe  Fe74      1.0  0.16379  0.79524  0.42737  1.0000
  S   S150      1.0  0.19128  0.78796  0.43227  1.0000
  S   S151      1.0  0.15062  0.80430  0.46371  1.0000
  Fe  Fe75      1.0  0.20161  0.80655  0.39596  1.0000
  S   S152      1.0  0.23067  0.82709  0.39837  1.0000
  H   H1139     1.0  0.07039  0.76594  0.18700  1.0000
  S   S153      1.0  0.17446  0.81486  0.39253  1.0000
  Fe  Fe76      1.0  0.30097  0.97302  0.38932  1.0000
  S   S154      1.0  0.30880  0.00306  0.39724  1.0000
  Fe  Fe77      1.0  0.27575  0.93325  0.38747  1.0000
  S   S155      1.0  0.30158  0.92260  0.38491  1.0000
  S   S156      1.0  0.24622  0.91304  0.38761  1.0000
  Fe  Fe78      1.0  0.31269  0.94200  0.41702  1.0000
  H   H1140     1.0  0.10044  0.83288  0.06212  1.0000
  Fe  Fe79      1.0  0.31313  0.94587  0.35513  1.0000
  H   H1141     1.0  0.30764  0.96231  0.46814  1.0000
  S   S157      1.0  0.28636  0.95167  0.42105  1.0000
  S   S158      1.0  0.28687  0.95599  0.35609  1.0000
  C   C649      1.0  0.23126  0.76799  0.44309  1.0000
  H   H1142     1.0  0.21014  0.83474  0.21191  1.0000
  H   H1143     1.0  0.18069  0.76836  0.02262  1.0000
  S   S159      1.0  0.15092  0.77211  0.40182  1.0000
  H   H1144     1.0  0.28929  0.86072  0.04137  1.0000
  S   S160      1.0  0.32634  0.93438  0.45439  1.0000
  H   H1145     1.0  0.28706  0.86325  0.19096  1.0000
  H   H1146     1.0  0.17889  0.77816  0.31070  1.0000
  H   H1147     1.0  0.21178  0.91987  0.46616  1.0000
  C   C650      1.0  0.27032  0.89924  0.47367  1.0000
  N   N38       1.0  0.19802  0.86344  0.48064  1.0000
  H   H1148     1.0  0.10542  0.82312  0.47265  1.0000
  H   H1149     1.0  0.11168  0.78125  0.47623  1.0000
  C   C651      1.0  0.23464  0.85094  0.39508  1.0000
  C   C652      1.0  0.25293  0.86214  0.39952  1.0000
  C   C653      1.0  0.25673  0.88109  0.39712  1.0000
  C   C654      1.0  0.24227  0.88916  0.39017  1.0000
  C   C655      1.0  0.22392  0.87796  0.38597  1.0000
  C   C656      1.0  0.22012  0.85900  0.38836  1.0000
  H   H1150     1.0  0.26430  0.85611  0.40471  1.0000
  H   H1151     1.0  0.27086  0.88943  0.40070  1.0000
  H   H1152     1.0  0.21259  0.88400  0.38065  1.0000
  H   H1153     1.0  0.20600  0.85063  0.38471  1.0000
  C   C657      1.0  0.16676  0.78148  0.24550  1.0000
  C   C658      1.0  0.17642  0.77731  0.26775  1.0000
  C   C659      1.0  0.17129  0.78131  0.29375  1.0000
  C   C660      1.0  0.15598  0.78890  0.29779  1.0000
  C   C661      1.0  0.14645  0.79323  0.27553  1.0000
  C   C662      1.0  0.15203  0.78983  0.24946  1.0000
  H   H1154     1.0  0.13467  0.79921  0.27847  1.0000
  H   H1155     1.0  0.14456  0.79322  0.23254  1.0000
  H   H1156     1.0  0.04164  0.77894  0.19893  1.0000
  C   C663      1.0  0.17005  0.78601  0.99631  1.0000
  C   C664      1.0  0.17452  0.77970  0.02140  1.0000
  C   C665      1.0  0.17092  0.78789  0.04487  1.0000
  C   C666      1.0  0.16319  0.80268  0.04292  1.0000
  C   C667      1.0  0.15838  0.80876  0.01797  1.0000
  C   C668      1.0  0.21268  0.89344  0.45253  1.0000
  H   H1157     1.0  0.32740  0.98936  0.26655  1.0000
  H   H1158     1.0  0.16075  0.80939  0.06055  1.0000
  H   H1159     1.0  0.15218  0.82006  0.01672  1.0000
  C   C669      1.0  0.08531  0.77508  0.13029  1.0000
  C   C670      1.0  0.06642  0.77549  0.12597  1.0000
  H   H1160     1.0  0.07383  0.76272  0.06985  1.0000
  C   C671      1.0  0.08756  0.75694  0.21566  1.0000
  H   H1161     1.0  0.11599  0.79256  0.01110  1.0000
  H   H1162     1.0  0.30437  0.99731  0.32052  1.0000
  H   H1163     1.0  0.06244  0.78798  0.12787  1.0000
  C   C672      1.0  0.27726  0.99461  0.30302  1.0000
  C   C673      1.0  0.10459  0.77363  0.21288  1.0000
  C   C674      1.0  0.21574  0.86206  0.14463  1.0000
  C   C675      1.0  0.22477  0.88063  0.14426  1.0000
  C   C676      1.0  0.24490  0.88704  0.14233  1.0000
  C   C677      1.0  0.25620  0.87492  0.14078  1.0000
  C   C678      1.0  0.24717  0.85636  0.14153  1.0000
  C   C679      1.0  0.22707  0.84995  0.14349  1.0000
  H   H1164     1.0  0.21615  0.89012  0.14516  1.0000
  H   H1165     1.0  0.25164  0.90136  0.14176  1.0000
  H   H1166     1.0  0.25577  0.84686  0.14051  1.0000
  H   H1167     1.0  0.22039  0.83564  0.14394  1.0000
  C   C680      1.0  0.31385  0.95593  0.03502  1.0000
  C   C681      1.0  0.30721  0.96316  0.01220  1.0000
  C   C682      1.0  0.26726  0.85676  0.01172  1.0000
  C   C683      1.0  0.22185  0.91354  0.45560  1.0000
  H   H1168     1.0  0.22077  0.86740  0.20465  1.0000
  C   C684      1.0  0.09032  0.75888  0.12753  1.0000
  H   H1169     1.0  0.29787  0.97191  0.01460  1.0000
  H   H1170     1.0  0.22902  0.78143  0.44690  1.0000
  C   C685      1.0  0.05973  0.77026  0.03561  1.0000
  H   H1171     1.0  0.20110  0.75634  0.45214  1.0000
  C   C686      1.0  0.30318  0.95212  0.23540  1.0000
  C   C687      1.0  0.20572  0.85898  0.00478  1.0000
  H   H1172     1.0  0.05704  0.78225  0.04495  1.0000
  C   C688      1.0  0.31825  0.94611  0.28532  1.0000
  C   C689      1.0  0.30061  0.95020  0.28422  1.0000
  C   C690      1.0  0.29323  0.95342  0.25939  1.0000
  C   C691      1.0  0.10157  0.78291  0.01389  1.0000
  H   H1173     1.0  0.12604  0.77887  0.04786  1.0000
  H   H1174     1.0  0.29276  0.95121  0.30243  1.0000
  H   H1175     1.0  0.27982  0.95705  0.25880  1.0000
  C   C692      1.0  0.27787  0.84961  0.03369  1.0000
  H   H1176     1.0  0.15545  0.86684  0.42742  1.0000
  C   C693      1.0  0.11405  0.81111  0.05633  1.0000
  H   H1177     1.0  0.15992  0.85101  0.40407  1.0000
  H   H1178     1.0  0.28922  0.88224  0.24421  1.0000
  H   H1179     1.0  0.08490  0.80203  0.04520  1.0000
  C   C694      1.0  0.11167  0.77214  0.05722  1.0000
  H   H1180     1.0  0.20470  0.84549  0.24140  1.0000
  H   H1181     1.0  0.24087  0.85777  0.20434  1.0000
  H   H1182     1.0  0.21847  0.76687  0.40409  1.0000
  H   H1183     1.0  0.27117  0.86228  0.23561  1.0000
  H   H1184     1.0  0.02914  0.75900  0.03188  1.0000
  H   H1185     1.0  0.14839  0.84285  0.43620  1.0000
  H   H1186     1.0  0.06204  0.77303  0.01368  1.0000
  H   H1187     1.0  0.22554  0.92044  0.43550  1.0000
  N   N39       1.0  0.20323  0.86399  0.05621  1.0000
  C   C695      1.0  0.22270  0.87707  0.05079  1.0000
  C   C696      1.0  0.19310  0.85951  0.03026  1.0000
  C   C697      1.0  0.19159  0.87328  0.07343  1.0000
  C   C698      1.0  0.20440  0.84705  0.07137  1.0000
  C   C699      1.0  0.21680  0.83596  0.05811  1.0000
  C   C700      1.0  0.23465  0.88318  0.07560  1.0000
  C   C701      1.0  0.17019  0.86307  0.07897  1.0000
  S   S161      1.0  0.32776  0.96380  0.38690  1.0000
  C   C702      1.0  0.21955  0.82120  0.07759  1.0000
  C   C703      1.0  0.25447  0.89541  0.06746  1.0000
  C   C704      1.0  0.15979  0.87432  0.09516  1.0000
  H   H1188     1.0  0.22110  0.88945  0.03990  1.0000
  H   H1189     1.0  0.23179  0.87146  0.03733  1.0000
  H   H1190     1.0  0.18198  0.84636  0.03273  1.0000
  H   H1191     1.0  0.18519  0.86966  0.02495  1.0000
  H   H1192     1.0  0.19211  0.88683  0.06429  1.0000
  H   H1193     1.0  0.19772  0.87569  0.09350  1.0000
  H   H1194     1.0  0.20938  0.85013  0.09188  1.0000
  H   H1195     1.0  0.18995  0.83757  0.07466  1.0000
  H   H1196     1.0  0.23121  0.84439  0.05166  1.0000
  H   H1197     1.0  0.20947  0.82920  0.04063  1.0000
  H   H1198     1.0  0.22757  0.89102  0.08866  1.0000
  H   H1199     1.0  0.23679  0.87144  0.08734  1.0000
  H   H1200     1.0  0.16890  0.85041  0.09092  1.0000
  H   H1201     1.0  0.16253  0.85975  0.06021  1.0000
  H   H1202     1.0  0.25553  0.84530  0.00573  1.0000
  H   H1203     1.0  0.26771  0.84349  0.05067  1.0000
  H   H1204     1.0  0.20551  0.81252  0.08538  1.0000
  H   H1205     1.0  0.22733  0.81260  0.06720  1.0000
  H   H1206     1.0  0.22800  0.82721  0.09472  1.0000
  H   H1207     1.0  0.26291  0.88805  0.05568  1.0000
  H   H1208     1.0  0.25329  0.90752  0.05560  1.0000
  H   H1209     1.0  0.26237  0.89998  0.08573  1.0000
  H   H1210     1.0  0.16659  0.87749  0.11465  1.0000
  H   H1211     1.0  0.16002  0.88707  0.08389  1.0000
  H   H1212     1.0  0.14466  0.86658  0.09934  1.0000
  H   H1213     1.0  0.09173  0.79004  0.00460  1.0000
  H   H1214     1.0  0.08952  0.75529  0.00016  1.0000
  H   H1215     1.0  0.12537  0.80635  0.06627  1.0000
  C   C705      1.0  0.05260  0.75989  0.11921  1.0000
  H   H1216     1.0  0.01189  0.78137  0.17422  1.0000
  S   S162      1.0  0.32867  0.96187  0.13935  1.0000
  H   H1217     1.0  0.20874  0.82884  0.44892  1.0000
  H   H1218     1.0  0.25153  0.94422  0.18178  1.0000
  H   H1219     1.0  0.26532  0.91478  0.30634  1.0000
  C   C706      1.0  0.10242  0.76675  0.99687  1.0000
  H   H1220     1.0  0.18792  0.77096  0.26483  1.0000
  H   H1221     1.0  0.27954  0.89074  0.46660  1.0000
  Fe  Fe80      1.0  0.17933  0.76600  0.40409  1.0000
  S   S163      1.0  0.32341  0.92369  0.10839  1.0000
  C   C707      1.0  0.07708  0.76519  0.04797  1.0000
  C   C708      1.0  0.32039  0.94724  0.23643  1.0000
  H   H1222     1.0  0.25950  0.88906  0.99316  1.0000
  H   H1223     1.0  0.23006  0.93184  0.20025  1.0000
  H   H1224     1.0  0.26946  0.88076  0.27890  1.0000
  H   H1225     1.0  0.22470  0.83552  0.24061  1.0000
  H   H1226     1.0  0.16885  0.84685  0.47724  1.0000
  H   H1227     1.0  0.21567  0.85053  0.00813  1.0000
  H   H1228     1.0  0.24732  0.88459  0.29059  1.0000
  H   H1229     1.0  0.30094  0.98506  0.29019  1.0000
  C   C709      1.0  0.02940  0.76714  0.19586  1.0000
  C   C710      1.0  0.06863  0.76158  0.20866  1.0000
  C   C711      1.0  0.28096  0.86525  0.98744  1.0000
  H   H1230     1.0  0.33070  0.98818  0.31294  1.0000
  H   H1231     1.0  0.03070  0.77655  0.15412  1.0000
  H   H1232     1.0  0.00955  0.75876  0.16378  1.0000
  H   H1233     1.0  0.25953  0.92916  0.22224  1.0000
  H   H1234     1.0  0.26735  0.92057  0.19214  1.0000
  H   H1235     1.0  0.27849  0.91365  0.47105  1.0000
  C   C712      1.0  0.11125  0.82710  0.07164  1.0000
  C   C713      1.0  0.20690  0.88356  0.48022  1.0000
  C   C714      1.0  0.04145  0.75492  0.04030  1.0000
  H   H1236     1.0  0.23784  0.92302  0.17004  1.0000
  H   H1237     1.0  0.01884  0.76582  0.21285  1.0000
  H   H1238     1.0  0.28753  0.91013  0.29553  1.0000
  C   C715      1.0  0.23224  0.76637  0.41275  1.0000
  H   H1239     1.0  0.12501  0.83772  0.07163  1.0000
  H   H1240     1.0  0.10482  0.75835  0.13080  1.0000
  H   H1241     1.0  0.24370  0.77777  0.40354  1.0000
  C   C716      1.0  0.17905  0.85540  0.43708  1.0000
  H   H1242     1.0  0.03817  0.76048  0.11601  1.0000
  H   H1243     1.0  0.10326  0.78353  0.22793  1.0000
  H   H1244     1.0  0.28434  0.83912  0.02596  1.0000
  C   C717      1.0  0.16165  0.80037  0.99460  1.0000
  C   C718      1.0  0.15946  0.85397  0.42562  1.0000
  H   H1245     1.0  0.27250  0.89626  0.32177  1.0000
  H   H1246     1.0  0.21429  0.87285  0.99858  1.0000
  H   H1247     1.0  0.10654  0.82286  0.09278  1.0000
  H   H1248     1.0  0.21515  0.85884  0.44661  1.0000
  C   C719      1.0  0.09505  0.79595  0.05585  1.0000
  H   H1249     1.0  0.08925  0.79300  0.07694  1.0000
  H   H1250     1.0  0.23519  0.91568  0.46677  1.0000
  H   H1251     1.0  0.12581  0.75530  0.26066  1.0000
  C   C720      1.0  0.31236  0.95901  0.98631  1.0000
  H   H1252     1.0  0.03886  0.76174  0.24405  1.0000
  H   H1253     1.0  0.18247  0.84243  0.43383  1.0000
  H   H1254     1.0  0.18974  0.86596  0.42518  1.0000
  H   H1255     1.0  0.22320  0.88803  0.44142  1.0000
  H   H1256     1.0  0.26083  0.86681  0.02064  1.0000
  H   H1257     1.0  0.30317  0.86252  0.21742  1.0000
  N   N40       1.0  0.09635  0.77872  0.04330  1.0000
  H   H1258     1.0  0.19990  0.89247  0.44053  1.0000
  H   H1259     1.0  0.11239  0.77604  0.07853  1.0000
  H   H1260     1.0  0.30499  0.88344  0.19885  1.0000
  H   H1261     1.0  0.11928  0.81621  0.03571  1.0000
  H   H1262     1.0  0.29338  0.87507  0.99568  1.0000
  C   C721      1.0  0.32792  0.94438  0.26130  1.0000
  H   H1263     1.0  0.06815  0.77396  0.21919  1.0000
  C   C722      1.0  0.01980  0.77111  0.17043  1.0000
  C   C723      1.0  0.17893  0.85909  0.46741  1.0000
  N   N41       1.0  0.25306  0.89080  0.23129  1.0000
  C   C724      1.0  0.23853  0.87335  0.24004  1.0000
  C   C725      1.0  0.26023  0.90176  0.25527  1.0000
  C   C726      1.0  0.24293  0.90153  0.21395  1.0000
  C   C727      1.0  0.26956  0.88768  0.21478  1.0000
  C   C728      1.0  0.28074  0.87528  0.22778  1.0000
  C   C729      1.0  0.22965  0.86098  0.21728  1.0000
  C   C730      1.0  0.25466  0.92088  0.20484  1.0000
  C   C731      1.0  0.26186  0.89127  0.28184  1.0000
  C   C732      1.0  0.27245  0.90394  0.30254  1.0000
  C   C733      1.0  0.29484  0.87090  0.20746  1.0000
  C   C734      1.0  0.21653  0.84312  0.22864  1.0000
  C   C735      1.0  0.24269  0.93050  0.18822  1.0000
  H   H1264     1.0  0.22652  0.87631  0.25185  1.0000
  H   H1265     1.0  0.24467  0.86504  0.25390  1.0000
  H   H1266     1.0  0.27440  0.91150  0.25020  1.0000
  H   H1267     1.0  0.25051  0.91026  0.26068  1.0000
  H   H1268     1.0  0.22954  0.90261  0.22452  1.0000
  H   H1269     1.0  0.23843  0.89457  0.19527  1.0000
  H   H1270     1.0  0.26467  0.88235  0.19510  1.0000
  H   H1271     1.0  0.28040  0.90065  0.20964  1.0000
  C   C736      1.0  0.33134  0.00302  0.25658  1.0000
  H   H1272     1.0  0.27057  0.98227  0.31569  1.0000
  H   H1273     1.0  0.19020  0.82798  0.47313  1.0000
  H   H1274     1.0  0.17179  0.87007  0.47030  1.0000
  H   H1275     1.0  0.03807  0.75809  0.29428  1.0000
  H   H1276     1.0  0.11805  0.76971  0.21600  1.0000
  H   H1277     1.0  0.10564  0.78012  0.19251  1.0000
  H   H1278     1.0  0.25777  0.89695  0.46082  1.0000
  H   H1279     1.0  0.27076  0.99314  0.28313  1.0000
  H   H1280     1.0  0.32823  0.94633  0.21806  1.0000
  H   H1281     1.0  0.24530  0.76772  0.45097  1.0000
  H   H1282     1.0  0.25173  0.91845  0.98620  1.0000
  H   H1283     1.0  0.22632  0.85914  0.47703  1.0000
  H   H1284     1.0  0.11530  0.76230  0.00176  1.0000
  H   H1285     1.0  0.06685  0.75796  0.26587  1.0000
  H   H1286     1.0  0.32074  0.00212  0.24064  1.0000
  H   H1287     1.0  0.32014  0.00387  0.45893  1.0000
  H   H1288     1.0  0.12334  0.75634  0.45947  1.0000
  H   H1289     1.0  0.16377  0.77316  0.48103  1.0000
  S   S164      1.0  0.32905  0.94381  0.31605  1.0000
  C   C737      1.0  0.32596  0.94466  0.03167  1.0000
  C   C738      1.0  0.32209  0.94370  0.48506  1.0000
  H   H1290     1.0  0.23215  0.82925  0.48426  1.0000
  H   H1291     1.0  0.33126  0.93909  0.04905  1.0000
  Fe  Fe81      1.0  0.31152  0.95570  0.66613  1.0000
  H   H1292     1.0  0.21263  0.79439  0.53325  1.0000
  S   S165      1.0  0.30238  0.96899  0.70184  1.0000
  Fe  Fe82      1.0  0.31579  0.95478  0.60504  1.0000
  C   C739      1.0  0.08523  0.78146  0.70219  1.0000
  S   S166      1.0  0.31246  0.96827  0.56507  1.0000
  Fe  Fe83      1.0  0.30425  0.91994  0.63953  1.0000
  S   S167      1.0  0.28649  0.89059  0.64221  1.0000
  C   C740      1.0  0.10573  0.78045  0.70633  1.0000
  S   S168      1.0  0.29118  0.94308  0.63476  1.0000
  H   H1293     1.0  0.08468  0.76653  0.90957  1.0000
  Fe  Fe84      1.0  0.17820  0.83248  0.63893  1.0000
  S   S169      1.0  0.19158  0.80946  0.64250  1.0000
  S   S170      1.0  0.19583  0.86191  0.63350  1.0000
  Fe  Fe85      1.0  0.13711  0.80626  0.63992  1.0000
  S   S171      1.0  0.14840  0.78197  0.64421  1.0000
  S   S172      1.0  0.10569  0.80397  0.63245  1.0000
  Fe  Fe86      1.0  0.16802  0.79801  0.67395  1.0000
  S   S173      1.0  0.17576  0.78610  0.71305  1.0000
  Fe  Fe87      1.0  0.17043  0.79620  0.61243  1.0000
  S   S174      1.0  0.17727  0.78144  0.57624  1.0000
  S   S175      1.0  0.15542  0.82168  0.67171  1.0000
  S   S176      1.0  0.15834  0.81994  0.60714  1.0000
  Fe  Fe88      1.0  0.16107  0.79283  0.86605  1.0000
  S   S177      1.0  0.18790  0.78386  0.86232  1.0000
  S   S178      1.0  0.14337  0.79557  0.83010  1.0000
  Fe  Fe89      1.0  0.16616  0.79841  0.92615  1.0000
  S   S179      1.0  0.19341  0.78992  0.92579  1.0000
  S   S180      1.0  0.15473  0.80799  0.96381  1.0000
  Fe  Fe90      1.0  0.20089  0.80737  0.88765  1.0000
  S   S181      1.0  0.23003  0.82722  0.87638  1.0000
  H   H1294     1.0  0.24063  0.96990  0.70789  1.0000
  S   S182      1.0  0.17442  0.81704  0.88953  1.0000
  Fe  Fe91      1.0  0.29880  0.97531  0.88541  1.0000
  H   H1295     1.0  0.09876  0.76952  0.85039  1.0000
  Fe  Fe92      1.0  0.27869  0.93414  0.88549  1.0000
  S   S183      1.0  0.30689  0.92747  0.88299  1.0000
  S   S184      1.0  0.24991  0.91264  0.88886  1.0000
  Fe  Fe93      1.0  0.31606  0.94828  0.91395  1.0000
  C   C741      1.0  0.30881  0.88503  0.55874  1.0000
  Fe  Fe94      1.0  0.31550  0.95072  0.85242  1.0000
  H   H1296     1.0  0.22279  0.78666  0.56217  1.0000
  S   S185      1.0  0.28743  0.95385  0.91809  1.0000
  S   S186      1.0  0.28668  0.95638  0.85317  1.0000
  H   H1297     1.0  0.27189  0.90733  0.93713  1.0000
  H   H1298     1.0  0.30108  0.89695  0.70209  1.0000
  H   H1299     1.0  0.22569  0.84092  0.69313  1.0000
  H   H1300     1.0  0.27103  0.93933  0.72660  1.0000
  C   C742      1.0  0.25189  0.96255  0.70757  1.0000
  H   H1301     1.0  0.22016  0.78646  0.77700  1.0000
  H   H1302     1.0  0.27082  0.86318  0.77962  1.0000
  H   H1303     1.0  0.22970  0.88600  0.76829  1.0000
  H   H1304     1.0  0.28854  0.88633  0.51370  1.0000
  H   H1305     1.0  0.20418  0.86152  0.69796  1.0000
  H   H1306     1.0  0.28477  0.84981  0.79525  1.0000
  C   C743      1.0  0.26236  0.90372  0.95537  1.0000
  C   C744      1.0  0.32725  0.95725  0.73412  1.0000
  C   C745      1.0  0.23534  0.85098  0.87973  1.0000
  C   C746      1.0  0.25406  0.86176  0.87370  1.0000
  C   C747      1.0  0.25882  0.88063  0.87625  1.0000
  C   C748      1.0  0.24488  0.88895  0.88499  1.0000
  C   C749      1.0  0.22618  0.87816  0.89096  1.0000
  C   C750      1.0  0.22143  0.85934  0.88837  1.0000
  H   H1307     1.0  0.26498  0.85547  0.86711  1.0000
  H   H1308     1.0  0.27325  0.88873  0.87147  1.0000
  H   H1309     1.0  0.21525  0.88442  0.89765  1.0000
  H   H1310     1.0  0.20698  0.85131  0.89311  1.0000
  C   C751      1.0  0.16596  0.78855  0.74517  1.0000
  C   C752      1.0  0.17173  0.78008  0.76754  1.0000
  C   C753      1.0  0.16475  0.78200  0.79353  1.0000
  C   C754      1.0  0.15200  0.79254  0.79751  1.0000
  C   C755      1.0  0.14591  0.80075  0.77511  1.0000
  C   C756      1.0  0.15294  0.79887  0.74905  1.0000
  H   H1311     1.0  0.13592  0.80882  0.77795  1.0000
  H   H1312     1.0  0.14834  0.80543  0.73201  1.0000
  H   H1313     1.0  0.23135  0.78440  0.83566  1.0000
  H   H1314     1.0  0.30594  0.99390  0.82431  1.0000
  C   C757      1.0  0.16984  0.77679  0.52286  1.0000
  C   C758      1.0  0.17025  0.78786  0.54465  1.0000
  C   C759      1.0  0.16494  0.80388  0.54096  1.0000
  C   C760      1.0  0.15887  0.80870  0.51615  1.0000
  H   H1315     1.0  0.29498  0.88624  0.73515  1.0000
  C   C761      1.0  0.16426  0.78184  0.49765  1.0000
  H   H1316     1.0  0.16566  0.81266  0.55718  1.0000
  H   H1317     1.0  0.15448  0.82101  0.51378  1.0000
  C   C762      1.0  0.08853  0.78348  0.62630  1.0000
  C   C763      1.0  0.07087  0.78416  0.61615  1.0000
  H   H1318     1.0  0.06877  0.78039  0.55837  1.0000
  H   H1319     1.0  0.23771  0.79470  0.53238  1.0000
  C   C764      1.0  0.22673  0.79320  0.79499  1.0000
  H   H1320     1.0  0.27883  0.88190  0.92342  1.0000
  H   H1321     1.0  0.06816  0.79710  0.61183  1.0000
  H   H1322     1.0  0.03134  0.80430  0.66927  1.0000
  H   H1323     1.0  0.23850  0.94357  0.73920  1.0000
  C   C765      1.0  0.22107  0.86961  0.63581  1.0000
  C   C766      1.0  0.22989  0.88826  0.63455  1.0000
  C   C767      1.0  0.24985  0.89493  0.63665  1.0000
  C   C768      1.0  0.26127  0.88298  0.63970  1.0000
  C   C769      1.0  0.25247  0.86435  0.64081  1.0000
  C   C770      1.0  0.23250  0.85769  0.63890  1.0000
  H   H1324     1.0  0.22119  0.89760  0.63215  1.0000
  H   H1325     1.0  0.25638  0.90930  0.63580  1.0000
  H   H1326     1.0  0.26114  0.85498  0.64319  1.0000
  H   H1327     1.0  0.22597  0.84333  0.63980  1.0000
  C   C771      1.0  0.31638  0.95860  0.53454  1.0000
  C   C772      1.0  0.15865  0.79781  0.49437  1.0000
  H   H1328     1.0  0.30132  0.87085  0.56476  1.0000
  H   H1329     1.0  0.04485  0.79467  0.78217  1.0000
  H   H1330     1.0  0.11857  0.78504  0.53746  1.0000
  C   C773      1.0  0.30977  0.96469  0.51084  1.0000
  H   H1331     1.0  0.17284  0.77959  0.97836  1.0000
  H   H1332     1.0  0.11519  0.81522  0.53058  1.0000
  C   C774      1.0  0.23313  0.90384  0.71315  1.0000
  H   H1333     1.0  0.30245  0.97523  0.51148  1.0000
  C   C775      1.0  0.31086  0.96351  0.73281  1.0000
  H   H1334     1.0  0.20365  0.76104  0.53931  1.0000
  N   N42       1.0  0.04965  0.76159  0.70508  1.0000
  H   H1335     1.0  0.08207  0.79120  0.71610  1.0000
  C   C776      1.0  0.30729  0.96084  0.78150  1.0000
  C   C777      1.0  0.30101  0.96544  0.75658  1.0000
  H   H1336     1.0  0.22615  0.82884  0.96937  1.0000
  C   C778      1.0  0.31910  0.89124  0.92024  1.0000
  H   H1337     1.0  0.29954  0.96233  0.79959  1.0000
  H   H1338     1.0  0.28839  0.97037  0.75577  1.0000
  S   S187      1.0  0.14955  0.77528  0.90311  1.0000
  H   H1339     1.0  0.23645  0.91811  0.76151  1.0000
  H   H1340     1.0  0.05303  0.77441  0.66570  1.0000
  C   C779      1.0  0.19353  0.85161  0.98128  1.0000
  C   C780      1.0  0.22390  0.82931  0.70767  1.0000
  H   H1341     1.0  0.20404  0.88346  0.68475  1.0000
  H   H1342     1.0  0.23076  0.93736  0.70620  1.0000
  H   H1343     1.0  0.23715  0.87993  0.69385  1.0000
  C   C781      1.0  0.24544  0.89643  0.80219  1.0000
  H   H1344     1.0  0.20877  0.85827  0.51928  1.0000
  H   H1345     1.0  0.28891  0.86480  0.93543  1.0000
  H   H1346     1.0  0.24187  0.88303  0.81304  1.0000
  H   H1347     1.0  0.03097  0.78958  0.64171  1.0000
  C   C782      1.0  0.19482  0.85685  0.50971  1.0000
  H   H1348     1.0  0.23648  0.82378  0.70516  1.0000
  C   C783      1.0  0.25311  0.84354  0.94888  1.0000
  H   H1349     1.0  0.23382  0.76912  0.81017  1.0000
  C   C784      1.0  0.22545  0.77847  0.81679  1.0000
  H   H1350     1.0  0.25629  0.82539  0.80686  1.0000
  H   H1351     1.0  0.24203  0.79951  0.78992  1.0000
  H   H1352     1.0  0.19728  0.87713  0.71958  1.0000
  H   H1353     1.0  0.01796  0.77756  0.70016  1.0000
  H   H1354     1.0  0.26323  0.93265  0.69432  1.0000
  H   H1355     1.0  0.32278  0.99888  0.77949  1.0000
  H   H1356     1.0  0.11576  0.79404  0.70266  1.0000
  C   C785      1.0  0.08985  0.76545  0.50496  1.0000
  H   H1357     1.0  0.26873  0.90391  0.69588  1.0000
  C   C786      1.0  0.28578  0.87762  0.94109  1.0000
  H   H1358     1.0  0.28624  0.91288  0.75125  1.0000
  H   H1359     1.0  0.16915  0.77520  0.81047  1.0000
  C   C787      1.0  0.26982  0.89175  0.97566  1.0000
  H   H1360     1.0  0.18277  0.85924  0.97753  1.0000
  H   H1361     1.0  0.25478  0.88641  0.76644  1.0000
  H   H1362     1.0  0.26119  0.92184  0.76518  1.0000
  H   H1363     1.0  0.25768  0.96298  0.68665  1.0000
  H   H1364     1.0  0.23007  0.87576  0.72852  1.0000
  N   N43       1.0  0.27696  0.89359  0.55077  1.0000
  C   C788      1.0  0.26584  0.90611  0.56124  1.0000
  C   C789      1.0  0.26648  0.87420  0.55859  1.0000
  C   C790      1.0  0.29597  0.89791  0.56409  1.0000
  C   C791      1.0  0.28108  0.89626  0.52090  1.0000
  C   C792      1.0  0.21771  0.76801  0.49903  1.0000
  C   C793      1.0  0.27534  0.92654  0.55651  1.0000
  C   C794      1.0  0.05173  0.77068  0.52433  1.0000
  C   C795      1.0  0.24424  0.86914  0.56018  1.0000
  C   C796      1.0  0.23581  0.84877  0.56412  1.0000
  H   H1365     1.0  0.07385  0.75593  0.72460  1.0000
  C   C797      1.0  0.26188  0.93763  0.56567  1.0000
  H   H1366     1.0  0.29372  0.92490  0.71955  1.0000
  H   H1367     1.0  0.26306  0.90353  0.58325  1.0000
  H   H1368     1.0  0.25152  0.90345  0.55261  1.0000
  H   H1369     1.0  0.27108  0.86488  0.54496  1.0000
  H   H1370     1.0  0.27036  0.87051  0.57908  1.0000
  H   H1371     1.0  0.29365  0.89815  0.58618  1.0000
  H   H1372     1.0  0.30479  0.91161  0.55758  1.0000
  H   H1373     1.0  0.29133  0.90965  0.51590  1.0000
  C   C798      1.0  0.10998  0.81053  0.51072  1.0000
  H   H1374     1.0  0.10260  0.78928  0.56218  1.0000
  C   C799      1.0  0.21651  0.82487  0.48915  1.0000
  H   H1375     1.0  0.28835  0.93066  0.56831  1.0000
  H   H1376     1.0  0.27922  0.93013  0.53502  1.0000
  H   H1377     1.0  0.05834  0.75586  0.83060  1.0000
  C   C800      1.0  0.04645  0.77583  0.68556  1.0000
  H   H1378     1.0  0.23917  0.87542  0.57765  1.0000
  H   H1379     1.0  0.23829  0.87378  0.54204  1.0000
  H   H1380     1.0  0.24113  0.84362  0.58258  1.0000
  H   H1381     1.0  0.21998  0.84558  0.56637  1.0000
  H   H1382     1.0  0.23964  0.84175  0.54664  1.0000
  H   H1383     1.0  0.26008  0.90395  0.80744  1.0000
  C   C801      1.0  0.02417  0.79100  0.66143  1.0000
  C   C802      1.0  0.06956  0.77170  0.54125  1.0000
  H   H1384     1.0  0.25795  0.93485  0.58736  1.0000
  H   H1385     1.0  0.26917  0.95221  0.56243  1.0000
  H   H1386     1.0  0.24871  0.93454  0.55403  1.0000
  H   H1387     1.0  0.26352  0.96956  0.72039  1.0000
  H   H1388     1.0  0.09113  0.77572  0.96051  1.0000
  H   H1389     1.0  0.24776  0.89679  0.94931  1.0000
  C   C803      1.0  0.04991  0.78085  0.74674  1.0000
  H   H1390     1.0  0.04317  0.76902  0.60380  1.0000
  H   H1391     1.0  0.23130  0.77779  0.49174  1.0000
  C   C804      1.0  0.22314  0.78714  0.53992  1.0000
  H   H1392     1.0  0.25488  0.90348  0.50892  1.0000
  C   C805      1.0  0.09635  0.77007  0.89383  1.0000
  H   H1393     1.0  0.18748  0.84221  0.51136  1.0000
  S   S188      1.0  0.32778  0.93089  0.60796  1.0000
  C   C806      1.0  0.02533  0.77574  0.68113  1.0000
  H   H1394     1.0  0.22088  0.90715  0.72387  1.0000
  C   C807      1.0  0.10361  0.79061  0.89177  1.0000
  C   C808      1.0  0.25834  0.93193  0.71583  1.0000
  S   S189      1.0  0.32326  0.93187  0.67270  1.0000
  H   H1395     1.0  0.29001  0.99376  0.79729  1.0000
  H   H1396     1.0  0.05015  0.79286  0.73374  1.0000
  H   H1397     1.0  0.10982  0.77125  0.69206  1.0000
  H   H1398     1.0  0.21035  0.77055  0.82065  1.0000
  H   H1399     1.0  0.16603  0.84319  0.55142  1.0000
  H   H1400     1.0  0.05024  0.76006  0.50951  1.0000
  S   S190      1.0  0.32803  0.97078  0.88305  1.0000
  H   H1401     1.0  0.31330  0.88572  0.53724  1.0000
  H   H1402     1.0  0.06463  0.78139  0.75282  1.0000
  H   H1403     1.0  0.30701  0.96460  0.96902  1.0000
  C   C809      1.0  0.17663  0.85620  0.55440  1.0000
  H   H1404     1.0  0.10512  0.76589  0.64036  1.0000
  H   H1405     1.0  0.08136  0.80408  0.52666  1.0000
  H   H1406     1.0  0.08486  0.78713  0.68161  1.0000
  C   C810      1.0  0.26119  0.92125  0.96778  1.0000
  C   C811      1.0  0.08987  0.79704  0.51416  1.0000
  H   H1407     1.0  0.32343  0.87845  0.92134  1.0000
  C   C812      1.0  0.26372  0.89441  0.50303  1.0000
  N   N44       1.0  0.27242  0.87429  0.96553  1.0000
  H   H1408     1.0  0.10881  0.79568  0.91143  1.0000
  H   H1409     1.0  0.11574  0.79495  0.87675  1.0000
  H   H1410     1.0  0.09199  0.79674  0.88599  1.0000
  C   C813      1.0  0.24342  0.94311  0.71810  1.0000
  H   H1411     1.0  0.16994  0.86777  0.51745  1.0000
  S   S191      1.0  0.00138  0.75496  0.59870  1.0000
  H   H1412     1.0  0.24249  0.86138  0.97478  1.0000
  H   H1413     1.0  0.00891  0.79045  0.65844  1.0000
  C   C814      1.0  0.10414  0.77199  0.96696  1.0000
  C   C815      1.0  0.30526  0.89179  0.94365  1.0000
  H   H1414     1.0  0.07914  0.76573  0.48963  1.0000
  C   C816      1.0  0.24442  0.89406  0.77197  1.0000
  N   N45       1.0  0.25166  0.91250  0.72626  1.0000
  C   C817      1.0  0.18295  0.86643  0.52751  1.0000
  H   H1415     1.0  0.23339  0.90952  0.69223  1.0000
  C   C818      1.0  0.10399  0.77955  0.54672  1.0000
  H   H1416     1.0  0.26266  0.88888  0.72407  1.0000
  H   H1417     1.0  0.12351  0.77543  0.59146  1.0000
  Fe  Fe95      1.0  0.17717  0.76748  0.90075  1.0000
  H   H1418     1.0  0.20277  0.85275  0.96284  1.0000
  C   C819      1.0  0.28699  0.91144  0.72931  1.0000
  H   H1419     1.0  0.21076  0.81884  0.70294  1.0000
  H   H1420     1.0  0.03777  0.77046  0.78647  1.0000
  N   N46       1.0  0.21824  0.82391  0.78605  1.0000
  C   C820      1.0  0.22008  0.81960  0.75701  1.0000
  C   C821      1.0  0.21595  0.80712  0.80393  1.0000
  C   C822      1.0  0.20032  0.83028  0.78942  1.0000
  C   C823      1.0  0.23488  0.83888  0.79417  1.0000
  C   C824      1.0  0.25493  0.83558  0.79129  1.0000
  C   C825      1.0  0.22219  0.83545  0.73615  1.0000
  C   C826      1.0  0.19327  0.83191  0.81868  1.0000
  C   C827      1.0  0.27061  0.85280  0.79568  1.0000
  C   C828      1.0  0.17690  0.84097  0.81917  1.0000
  H   H1421     1.0  0.20737  0.80864  0.75188  1.0000
  H   H1422     1.0  0.23254  0.81414  0.75317  1.0000
  H   H1423     1.0  0.21987  0.81082  0.82472  1.0000
  H   H1424     1.0  0.20070  0.79927  0.80559  1.0000
  H   H1425     1.0  0.18817  0.82104  0.77959  1.0000
  H   H1426     1.0  0.20233  0.84376  0.77921  1.0000
  H   H1427     1.0  0.23513  0.85173  0.78312  1.0000
  H   H1428     1.0  0.23315  0.84167  0.81562  1.0000
  H   H1429     1.0  0.25773  0.83100  0.77121  1.0000
  H   H1430     1.0  0.20954  0.84094  0.73711  1.0000
  H   H1431     1.0  0.23527  0.84634  0.73942  1.0000
  H   H1432     1.0  0.20473  0.83997  0.83074  1.0000
  H   H1433     1.0  0.18783  0.81839  0.82883  1.0000
  H   H1434     1.0  0.26832  0.85821  0.81545  1.0000
  H   H1435     1.0  0.18190  0.85506  0.81083  1.0000
  H   H1436     1.0  0.16487  0.83340  0.80742  1.0000
  H   H1437     1.0  0.17149  0.84122  0.84012  1.0000
  H   H1438     1.0  0.25951  0.84455  0.92821  1.0000
  H   H1439     1.0  0.31484  0.90605  0.73022  1.0000
  C   C829      1.0  0.03348  0.76588  0.54212  1.0000
  H   H1440     1.0  0.26132  0.83672  0.96195  1.0000
  H   H1441     1.0  0.23510  0.90382  0.80923  1.0000
  C   C830      1.0  0.07077  0.76253  0.70569  1.0000
  C   C831      1.0  0.30023  0.89939  0.72381  1.0000
  C   C832      1.0  0.31257  0.95726  0.48623  1.0000
  H   H1442     1.0  0.09960  0.83416  0.50197  1.0000
  C   C833      1.0  0.24866  0.91251  0.75632  1.0000
  C   C834      1.0  0.20710  0.87593  0.70270  1.0000
  H   H1443     1.0  0.05249  0.78367  0.51345  1.0000
  C   C835      1.0  0.26693  0.90344  0.71818  1.0000
  C   C836      1.0  0.22796  0.88315  0.71010  1.0000
  C   C837      1.0  0.32363  0.95454  0.78288  1.0000
  H   H1444     1.0  0.02337  0.78198  0.76743  1.0000
  C   C838      1.0  0.10968  0.82709  0.49317  1.0000
  H   H1445     1.0  0.16973  0.86421  0.56749  1.0000
  H   H1446     1.0  0.19176  0.88009  0.53197  1.0000
  H   H1447     1.0  0.32343  0.88954  0.59635  1.0000
  H   H1448     1.0  0.18904  0.85371  0.56485  1.0000
  H   H1449     1.0  0.24757  0.86907  0.94103  1.0000
  C   C839      1.0  0.05663  0.76823  0.61169  1.0000
  H   H1450     1.0  0.10834  0.76479  0.90024  1.0000
  C   C840      1.0  0.10921  0.76878  0.48913  1.0000
  H   H1451     1.0  0.13471  0.76600  0.56492  1.0000
  S   S192      1.0  0.29489  0.00344  0.88996  1.0000
  H   H1452     1.0  0.18164  0.77192  0.76474  1.0000
  H   H1453     1.0  0.12395  0.75857  0.84968  1.0000
  H   H1454     1.0  0.02095  0.76496  0.52957  1.0000
  H   H1455     1.0  0.05388  0.78959  0.69138  1.0000
  C   C841      1.0  0.08861  0.76250  0.86698  1.0000
  H   H1456     1.0  0.30321  0.90557  0.94368  1.0000
  H   H1457     1.0  0.21165  0.80999  0.48804  1.0000
  C   C842      1.0  0.32599  0.94509  0.53336  1.0000
  C   C843      1.0  0.09170  0.76664  0.63224  1.0000
  C   C844      1.0  0.23272  0.83134  0.94875  1.0000
  N   N47       1.0  0.08875  0.77847  0.52643  1.0000
  C   C845      1.0  0.10398  0.76162  0.56185  1.0000
  C   C846      1.0  0.12176  0.76381  0.57834  1.0000
  H   H1458     1.0  0.22369  0.83745  0.93590  1.0000
  H   H1459     1.0  0.25515  0.92928  0.95324  1.0000
  C   C847      1.0  0.21793  0.76795  0.53011  1.0000
  C   C848      1.0  0.04146  0.76309  0.73272  1.0000
  H   H1460     1.0  0.10582  0.76044  0.95539  1.0000
  H   H1461     1.0  0.31227  0.88951  0.96232  1.0000
  H   H1462     1.0  0.01730  0.76304  0.67245  1.0000
  H   H1463     1.0  0.07553  0.76715  0.86414  1.0000
  C   C849      1.0  0.25325  0.86262  0.95804  1.0000
  H   H1464     1.0  0.21363  0.82834  0.50990  1.0000
  H   H1465     1.0  0.21986  0.88657  0.49244  1.0000
  H   H1466     1.0  0.11685  0.78352  0.96230  1.0000
  H   H1467     1.0  0.02573  0.76084  0.73227  1.0000
  H   H1468     1.0  0.18605  0.83717  0.98540  1.0000
  H   H1469     1.0  0.23298  0.81818  0.94060  1.0000
  C   C850      1.0  0.03823  0.78200  0.77225  1.0000
  C   C851      1.0  0.32453  0.94782  0.98292  1.0000
  H   H1470     1.0  0.09135  0.75724  0.57584  1.0000
  H   H1471     1.0  0.10728  0.77568  0.72715  1.0000
  C   C852      1.0  0.30192  0.00234  0.80820  1.0000
  H   H1472     1.0  0.12043  0.80430  0.50144  1.0000
  H   H1473     1.0  0.03379  0.77646  0.55674  1.0000
  H   H1474     1.0  0.07487  0.75479  0.68912  1.0000
  H   H1475     1.0  0.25485  0.88026  0.50404  1.0000
  C   C853      1.0  0.32702  0.89018  0.57450  1.0000
  H   H1476     1.0  0.06764  0.75786  0.55018  1.0000
  H   H1477     1.0  0.17352  0.76417  0.52560  1.0000
  H   H1478     1.0  0.12129  0.76989  0.50253  1.0000
  C   C854      1.0  0.32882  0.93768  0.50874  1.0000
  H   H1479     1.0  0.28706  0.85458  0.97940  1.0000
  H   H1480     1.0  0.19683  0.89046  0.48956  1.0000
  H   H1481     1.0  0.31241  0.89236  0.90082  1.0000
  H   H1482     1.0  0.08326  0.79592  0.49426  1.0000
  H   H1483     1.0  0.12424  0.83653  0.49162  1.0000
  H   H1484     1.0  0.22848  0.76111  0.53785  1.0000
  H   H1485     1.0  0.27567  0.92937  0.97277  1.0000
  H   H1486     1.0  0.20600  0.77398  0.49266  1.0000
  H   H1487     1.0  0.32987  0.00282  0.91900  1.0000
  H   H1488     1.0  0.28347  0.90009  0.98329  1.0000
  C   C855      1.0  0.43516  0.07812  0.99527  1.0000
  S   S193      1.0  0.39635  0.14193  0.32359  1.0000
  S   S194      1.0  0.40366  0.11616  0.39197  1.0000
  S   S195      1.0  0.40386  0.11896  0.25677  1.0000
  Fe  Fe96      1.0  0.38245  0.10935  0.04460  1.0000
  S   S196      1.0  0.41398  0.12236  0.04069  1.0000
  Fe  Fe97      1.0  0.38626  0.11986  0.29477  1.0000
  Fe  Fe98      1.0  0.38245  0.10837  0.10633  1.0000
  S   S197      1.0  0.41398  0.12102  0.10614  1.0000
  S   S198      1.0  0.36469  0.10150  0.14530  1.0000
  Fe  Fe99      1.0  0.40868  0.13961  0.07357  1.0000
  S   S199      1.0  0.42433  0.16910  0.07349  1.0000
  Fe  Fe100     1.0  0.41570  0.10230  0.07357  1.0000
  S   S200      1.0  0.43670  0.08547  0.07482  1.0000
  S   S201      1.0  0.37687  0.12812  0.07546  1.0000
  S   S202      1.0  0.38443  0.08815  0.07569  1.0000
  S   S203      1.0  0.37634  0.22553  0.05346  1.0000
  H   H1489     1.0  0.59567  0.01382  0.13529  1.0000
  C   C856      1.0  0.38158  0.04002  0.00845  1.0000
  H   H1490     1.0  0.53781  0.03320  0.02669  1.0000
  C   C857      1.0  0.36945  0.06670  0.45147  1.0000
  S   S204      1.0  0.47929  0.03908  0.42226  1.0000
  H   H1491     1.0  0.36089  0.07126  0.26215  1.0000
  H   H1492     1.0  0.34953  0.19348  0.36808  1.0000
  H   H1493     1.0  0.54884  0.07891  0.40294  1.0000
  H   H1494     1.0  0.51392  0.03875  0.11027  1.0000
  C   C858      1.0  0.55716  0.01994  0.37619  1.0000
  H   H1495     1.0  0.34916  0.06191  0.36281  1.0000
  H   H1496     1.0  0.42377  0.23572  0.20014  1.0000
  H   H1497     1.0  0.62859  0.02135  0.07433  1.0000
  S   S205      1.0  0.44329  0.05771  0.46484  1.0000
  C   C859      1.0  0.37780  0.23420  0.12790  1.0000
  C   C860      1.0  0.54506  0.04502  0.03812  1.0000
  H   H1498     1.0  0.43862  0.05468  0.40523  1.0000
  Fe  Fe101     1.0  0.50266  0.03192  0.19774  1.0000
  Fe  Fe102     1.0  0.50028  0.03100  0.44885  1.0000
  Fe  Fe103     1.0  0.63657  0.07163  0.22245  1.0000
  S   S206      1.0  0.61317  0.08530  0.21309  1.0000
  S   S207      1.0  0.63122  0.04172  0.22642  1.0000
  S   S208      1.0  0.52356  0.05964  0.19416  1.0000
  C   C861      1.0  0.58823  0.07659  0.20883  1.0000
  C   C862      1.0  0.57782  0.08911  0.20328  1.0000
  C   C863      1.0  0.55813  0.08353  0.19947  1.0000
  C   C864      1.0  0.54827  0.06527  0.20122  1.0000
  C   C865      1.0  0.55849  0.05249  0.20701  1.0000
  C   C866      1.0  0.57851  0.05814  0.21060  1.0000
  H   H1499     1.0  0.58510  0.10335  0.20193  1.0000
  H   H1500     1.0  0.55047  0.09353  0.19515  1.0000
  H   H1501     1.0  0.55102  0.03834  0.20868  1.0000
  H   H1502     1.0  0.58637  0.04830  0.21486  1.0000
  H   H1503     1.0  0.36286  0.15235  0.11242  1.0000
  C   C867      1.0  0.33654  0.03541  0.26093  1.0000
  H   H1504     1.0  0.43956  0.13024  0.47021  1.0000
  H   H1505     1.0  0.57792  0.05597  0.30374  1.0000
  C   C868      1.0  0.57521  0.01417  0.45954  1.0000
  N   N48       1.0  0.33412  0.06764  0.44825  1.0000
  Fe  Fe104     1.0  0.65773  0.04586  0.19976  1.0000
  H   H1506     1.0  0.38619  0.17884  0.00979  1.0000
  H   H1507     1.0  0.37410  0.22446  0.35764  1.0000
  H   H1508     1.0  0.44551  0.08478  0.42385  1.0000
  H   H1509     1.0  0.33568  0.06748  0.02995  1.0000
  H   H1510     1.0  0.48179  0.07837  0.18533  1.0000
  C   C869      1.0  0.52024  0.05261  0.11673  1.0000
  H   H1511     1.0  0.40708  0.01720  0.37990  1.0000
  H   H1512     1.0  0.56471  0.04592  0.12469  1.0000
  H   H1513     1.0  0.57605  0.07563  0.14186  1.0000
  H   H1514     1.0  0.33802  0.05229  0.98799  1.0000
  S   S209      1.0  0.36484  0.10350  0.00765  1.0000
  C   C870      1.0  0.54921  0.01417  0.15058  1.0000
  C   C871      1.0  0.61392  0.06276  0.38298  1.0000
  C   C872      1.0  0.38962  0.21005  0.06065  1.0000
  C   C873      1.0  0.40918  0.21584  0.06518  1.0000
  C   C874      1.0  0.41967  0.20315  0.06957  1.0000
  C   C875      1.0  0.41064  0.18467  0.06950  1.0000
  C   C876      1.0  0.39102  0.17894  0.06552  1.0000
  C   C877      1.0  0.38052  0.19159  0.06124  1.0000
  H   H1515     1.0  0.41626  0.23007  0.06522  1.0000
  H   H1516     1.0  0.43486  0.20770  0.07267  1.0000
  H   H1517     1.0  0.38393  0.16480  0.06525  1.0000
  H   H1518     1.0  0.36537  0.18706  0.05784  1.0000
  C   C878      1.0  0.44070  0.07827  0.04284  1.0000
  C   C879      1.0  0.43123  0.08310  0.02103  1.0000
  H   H1519     1.0  0.33531  0.02311  0.31729  1.0000
  H   H1520     1.0  0.36805  0.24121  0.11814  1.0000
  C   C880      1.0  0.45721  0.06249  0.01323  1.0000
  C   C881      1.0  0.45357  0.06781  0.03896  1.0000
  H   H1521     1.0  0.42094  0.09073  0.02396  1.0000
  H   H1522     1.0  0.35305  0.01653  0.22569  1.0000
  H   H1523     1.0  0.57429  0.11157  0.11462  1.0000
  H   H1524     1.0  0.46078  0.06390  0.05578  1.0000
  C   C882      1.0  0.39252  0.11464  0.22605  1.0000
  C   C883      1.0  0.37259  0.10925  0.22465  1.0000
  C   C884      1.0  0.36415  0.10524  0.19984  1.0000
  C   C885      1.0  0.37556  0.10674  0.17624  1.0000
  C   C886      1.0  0.39543  0.11227  0.17772  1.0000
  C   C887      1.0  0.40388  0.11626  0.20243  1.0000
  H   H1525     1.0  0.51591  0.05212  0.13837  1.0000
  H   H1526     1.0  0.40428  0.11346  0.15983  1.0000
  H   H1527     1.0  0.41929  0.12049  0.20334  1.0000
  C   C888      1.0  0.39480  0.11821  0.42475  1.0000
  C   C889      1.0  0.37901  0.12506  0.42924  1.0000
  C   C890      1.0  0.37219  0.12630  0.45556  1.0000
  H   H1528     1.0  0.45077  0.22853  0.37079  1.0000
  C   C891      1.0  0.58060  0.03298  0.45922  1.0000
  C   C892      1.0  0.40373  0.11272  0.44681  1.0000
  H   H1529     1.0  0.37210  0.12952  0.41251  1.0000
  H   H1530     1.0  0.47305  0.11405  0.45747  1.0000
  H   H1531     1.0  0.60967  0.07521  0.37769  1.0000
  H   H1532     1.0  0.41564  0.10703  0.44368  1.0000
  C   C893      1.0  0.37543  0.23074  0.29879  1.0000
  C   C894      1.0  0.38951  0.22121  0.30007  1.0000
  C   C895      1.0  0.38425  0.20235  0.30672  1.0000
  C   C896      1.0  0.36491  0.19305  0.31223  1.0000
  C   C897      1.0  0.35113  0.20276  0.31074  1.0000
  C   C898      1.0  0.35629  0.22129  0.30402  1.0000
  H   H1533     1.0  0.40438  0.22829  0.29603  1.0000
  H   H1534     1.0  0.39508  0.19507  0.30788  1.0000
  C   C899      1.0  0.42475  0.19114  0.99550  1.0000
  H   H1535     1.0  0.34527  0.22837  0.30321  1.0000
  H   H1536     1.0  0.41902  0.03489  0.02021  1.0000
  N   N49       1.0  0.40960  0.17634  0.15799  1.0000
  C   C900      1.0  0.41861  0.16103  0.15415  1.0000
  C   C901      1.0  0.39137  0.17278  0.14285  1.0000
  C   C902      1.0  0.42326  0.19314  0.14515  1.0000
  C   C903      1.0  0.40581  0.17943  0.18714  1.0000
  C   C904      1.0  0.40132  0.16267  0.20700  1.0000
  C   C905      1.0  0.43863  0.16332  0.16613  1.0000
  C   C906      1.0  0.41590  0.21028  0.14385  1.0000
  C   C907      1.0  0.37534  0.15568  0.15168  1.0000
  C   C908      1.0  0.35833  0.15331  0.13359  1.0000
  C   C909      1.0  0.39381  0.16691  0.23422  1.0000
  C   C910      1.0  0.45483  0.16714  0.14458  1.0000
  C   C911      1.0  0.43213  0.22719  0.13654  1.0000
  H   H1537     1.0  0.41951  0.15833  0.13245  1.0000
  H   H1538     1.0  0.40935  0.14823  0.16306  1.0000
  H   H1539     1.0  0.38466  0.18412  0.14447  1.0000
  H   H1540     1.0  0.39471  0.17193  0.12113  1.0000
  H   H1541     1.0  0.42739  0.19068  0.12423  1.0000
  H   H1542     1.0  0.43682  0.19671  0.15595  1.0000
  H   H1543     1.0  0.41832  0.18926  0.19523  1.0000
  H   H1544     1.0  0.39383  0.18590  0.18910  1.0000
  H   H1545     1.0  0.41448  0.15830  0.21046  1.0000
  H   H1546     1.0  0.39059  0.15102  0.19956  1.0000
  H   H1547     1.0  0.44184  0.17391  0.18103  1.0000
  H   H1548     1.0  0.43875  0.15060  0.17728  1.0000
  H   H1549     1.0  0.40926  0.21218  0.16339  1.0000
  H   H1550     1.0  0.40517  0.20919  0.12820  1.0000
  H   H1551     1.0  0.38033  0.14332  0.15062  1.0000
  H   H1552     1.0  0.36988  0.15683  0.17231  1.0000
  C   C912      1.0  0.41688  0.02054  0.02658  1.0000
  C   C913      1.0  0.43672  0.01783  0.03104  1.0000
  H   H1553     1.0  0.38086  0.06803  0.00870  1.0000
  H   H1554     1.0  0.38006  0.17053  0.23227  1.0000
  H   H1555     1.0  0.39123  0.15484  0.24812  1.0000
  H   H1556     1.0  0.40439  0.17816  0.24311  1.0000
  H   H1557     1.0  0.46864  0.16798  0.15412  1.0000
  H   H1558     1.0  0.45236  0.15615  0.13024  1.0000
  H   H1559     1.0  0.45599  0.18006  0.13325  1.0000
  H   H1560     1.0  0.53522  0.01885  0.11494  1.0000
  S   S210      1.0  0.64860  0.01460  0.01583  1.0000
  C   C914      1.0  0.43134  0.24504  0.36181  1.0000
  H   H1561     1.0  0.48692  0.04592  0.08449  1.0000
  C   C915      1.0  0.45385  0.13980  0.98932  1.0000
  H   H1562     1.0  0.39974  0.22641  0.42300  1.0000
  N   N50       1.0  0.58543  0.04585  0.35578  1.0000
  C   C916      1.0  0.59899  0.04999  0.33138  1.0000
  H   H1563     1.0  0.63369  0.07558  0.41258  1.0000
  H   H1564     1.0  0.48743  0.01220  0.10729  1.0000
  H   H1565     1.0  0.40508  0.02247  0.25299  1.0000
  C   C917      1.0  0.51023  0.06548  0.10211  1.0000
  H   H1566     1.0  0.54484  0.08647  0.10970  1.0000
  S   S211      1.0  0.64431  0.01114  0.44737  1.0000
  H   H1567     1.0  0.38306  0.20211  0.40590  1.0000
  H   H1568     1.0  0.33331  0.23861  0.19744  1.0000
  H   H1569     1.0  0.34731  0.14067  0.13983  1.0000
  H   H1570     1.0  0.33982  0.05173  0.29672  1.0000
  C   C918      1.0  0.66143  0.05155  0.38133  1.0000
  H   H1571     1.0  0.36284  0.24785  0.24170  1.0000
  Fe  Fe105     1.0  0.35024  0.10161  0.32869  1.0000
  H   H1572     1.0  0.37367  0.07812  0.46488  1.0000
  C   C919      1.0  0.35651  0.19192  0.38712  1.0000
  C   C920      1.0  0.44804  0.06771  0.99137  1.0000
  C   C921      1.0  0.45098  0.11854  0.15306  1.0000
  C   C922      1.0  0.44700  0.23618  0.35349  1.0000
  H   H1573     1.0  0.36596  0.22701  0.39072  1.0000
  H   H1574     1.0  0.56312  0.01463  0.14052  1.0000
  H   H1575     1.0  0.58347  0.03480  0.29886  1.0000
  H   H1576     1.0  0.48167  0.06680  0.09253  1.0000
  H   H1577     1.0  0.59721  0.05631  0.26187  1.0000
  S   S212      1.0  0.48374  0.02149  0.16377  1.0000
  H   H1578     1.0  0.35989  0.13151  0.45887  1.0000
  Fe  Fe106     1.0  0.38641  0.12004  0.35611  1.0000
  H   H1579     1.0  0.36367  0.10800  0.24267  1.0000
  H   H1580     1.0  0.44109  0.22335  0.01895  1.0000
  S   S213      1.0  0.42990  0.00975  0.18774  1.0000
  C   C923      1.0  0.57426  0.05988  0.35676  1.0000
  H   H1581     1.0  0.56074  0.04676  0.03610  1.0000
  H   H1582     1.0  0.39945  0.14744  0.98734  1.0000
  H   H1583     1.0  0.51663  0.06976  0.08173  1.0000
  S   S214      1.0  0.64277  0.03038  0.29917  1.0000
  N   N51       1.0  0.39665  0.23757  0.38349  1.0000
  C   C924      1.0  0.35127  0.00601  0.24209  1.0000
  C   C925      1.0  0.41260  0.23077  0.37119  1.0000
  H   H1584     1.0  0.42412  0.18931  0.01771  1.0000
  C   C926      1.0  0.39850  0.23924  0.41337  1.0000
  H   H1585     1.0  0.56149  0.05588  0.34428  1.0000
  N   N52       1.0  0.60071  0.02600  0.08025  1.0000
  H   H1586     1.0  0.35184  0.16480  0.13507  1.0000
  H   H1587     1.0  0.54166  0.05712  0.02904  1.0000
  C   C927      1.0  0.39701  0.11407  0.47311  1.0000
  H   H1588     1.0  0.38819  0.22160  0.20317  1.0000
  C   C928      1.0  0.35303  0.06905  0.43372  1.0000
  H   H1589     1.0  0.34214  0.08111  0.27235  1.0000
  H   H1590     1.0  0.61379  0.02799  0.17301  1.0000
  H   H1591     1.0  0.41633  0.22073  0.38515  1.0000
  H   H1592     1.0  0.40774  0.22346  0.35276  1.0000
  C   C929      1.0  0.36688  0.15354  0.00150  1.0000
  H   H1593     1.0  0.57888  0.08153  0.10653  1.0000
  H   H1594     1.0  0.36528  0.05402  0.46403  1.0000
  H   H1595     1.0  0.44798  0.10205  0.45747  1.0000
  H   H1596     1.0  0.56052  0.05200  0.39727  1.0000
  C   C930      1.0  0.34152  0.01725  0.30027  1.0000
  H   H1597     1.0  0.38519  0.24139  0.42269  1.0000
  H   H1598     1.0  0.47801  0.01607  0.06032  1.0000
  H   H1599     1.0  0.39977  0.02654  0.40988  1.0000
  H   H1600     1.0  0.63226  0.01571  0.35227  1.0000
  H   H1601     1.0  0.44282  0.22969  0.15235  1.0000
  H   H1602     1.0  0.37011  0.21981  0.13213  1.0000
  H   H1603     1.0  0.34805  0.19544  0.40396  1.0000
  H   H1604     1.0  0.56382  0.02681  0.33481  1.0000
  S   S215      1.0  0.35626  0.12245  0.29428  1.0000
  H   H1605     1.0  0.33621  0.19586  0.31499  1.0000
  H   H1606     1.0  0.65960  0.01086  0.11522  1.0000
  H   H1607     1.0  0.38801  0.04435  0.09220  1.0000
  H   H1608     1.0  0.57132  0.05721  0.45379  1.0000
  C   C931      1.0  0.53831  0.02510  0.13432  1.0000
  N   N53       1.0  0.42640  0.06655  0.16511  1.0000
  C   C932      1.0  0.44234  0.06182  0.17984  1.0000
  C   C933      1.0  0.40896  0.06368  0.18382  1.0000
  C   C934      1.0  0.42099  0.05349  0.14298  1.0000
  C   C935      1.0  0.43223  0.08557  0.15272  1.0000
  C   C936      1.0  0.44729  0.09997  0.16722  1.0000
  C   C937      1.0  0.45993  0.06102  0.16195  1.0000
  C   C938      1.0  0.40333  0.05495  0.12716  1.0000
  C   C939      1.0  0.41199  0.07172  0.21178  1.0000
  C   C940      1.0  0.39306  0.06784  0.22808  1.0000
  H   H1609     1.0  0.44410  0.12583  0.42171  1.0000
  C   C941      1.0  0.40051  0.04275  0.10334  1.0000
  H   H1610     1.0  0.43699  0.04843  0.19068  1.0000
  H   H1611     1.0  0.44734  0.07136  0.19586  1.0000
  H   H1612     1.0  0.39790  0.06927  0.17440  1.0000
  H   H1613     1.0  0.40223  0.04895  0.18755  1.0000
  H   H1614     1.0  0.41819  0.03931  0.15117  1.0000
  H   H1615     1.0  0.43304  0.05537  0.12787  1.0000
  H   H1616     1.0  0.43843  0.08567  0.13205  1.0000
  H   H1617     1.0  0.41945  0.09072  0.14997  1.0000
  H   H1618     1.0  0.46124  0.09666  0.16720  1.0000
  H   H1619     1.0  0.45727  0.04739  0.15377  1.0000
  H   H1620     1.0  0.46252  0.07100  0.14476  1.0000
  H   H1621     1.0  0.40502  0.06899  0.11940  1.0000
  H   H1622     1.0  0.39006  0.05073  0.14011  1.0000
  H   H1623     1.0  0.42175  0.06580  0.22352  1.0000
  H   H1624     1.0  0.41775  0.08646  0.21000  1.0000
  H   H1625     1.0  0.38260  0.07350  0.21739  1.0000
  H   H1626     1.0  0.38696  0.05311  0.23187  1.0000
  H   H1627     1.0  0.39554  0.07430  0.24763  1.0000
  H   H1628     1.0  0.57913  0.00448  0.10148  1.0000
  C   C942      1.0  0.35881  0.24211  0.22194  1.0000
  H   H1629     1.0  0.54259  0.07757  0.14321  1.0000
  H   H1630     1.0  0.39779  0.02842  0.11038  1.0000
  H   H1631     1.0  0.43342  0.22920  0.98655  1.0000
  H   H1632     1.0  0.41331  0.04647  0.08940  1.0000
  Fe  Fe107     1.0  0.65111  0.04755  0.26067  1.0000
  H   H1633     1.0  0.41819  0.01595  0.27996  1.0000
  H   H1634     1.0  0.43015  0.05218  0.37178  1.0000
  H   H1635     1.0  0.47638  0.05468  0.19486  1.0000
  N   N54       1.0  0.46045  0.10977  0.40228  1.0000
  C   C943      1.0  0.44452  0.09256  0.40518  1.0000
  C   C944      1.0  0.56737  0.06426  0.38484  1.0000
  C   C945      1.0  0.45832  0.11896  0.37574  1.0000
  C   C946      1.0  0.48013  0.10651  0.40268  1.0000
  C   C947      1.0  0.48223  0.08998  0.41997  1.0000
  C   C948      1.0  0.44309  0.07986  0.38147  1.0000
  C   C949      1.0  0.47178  0.13815  0.36999  1.0000
  Fe  Fe108     1.0  0.46189  0.03869  0.46016  1.0000
  C   C950      1.0  0.50323  0.09012  0.42225  1.0000
  C   C951      1.0  0.43144  0.06068  0.38945  1.0000
  C   C952      1.0  0.47092  0.14453  0.34086  1.0000
  H   H1636     1.0  0.59299  0.10728  0.13469  1.0000
  H   H1637     1.0  0.35124  0.05927  0.41756  1.0000
  H   H1638     1.0  0.46930  0.13506  0.42211  1.0000
  H   H1639     1.0  0.60879  0.06378  0.33204  1.0000
  H   H1640     1.0  0.44335  0.12001  0.37399  1.0000
  H   H1641     1.0  0.46087  0.11074  0.35887  1.0000
  H   H1642     1.0  0.48528  0.10456  0.38208  1.0000
  H   H1643     1.0  0.49074  0.11870  0.40935  1.0000
  H   H1644     1.0  0.47490  0.07726  0.41073  1.0000
  H   H1645     1.0  0.47590  0.08939  0.44047  1.0000
  H   H1646     1.0  0.43584  0.08487  0.36476  1.0000
  H   H1647     1.0  0.45743  0.07932  0.37379  1.0000
  H   H1648     1.0  0.48684  0.13851  0.37394  1.0000
  H   H1649     1.0  0.46730  0.14797  0.38268  1.0000
  H   H1650     1.0  0.38531  0.19855  0.37084  1.0000
  H   H1651     1.0  0.38478  0.02344  0.38142  1.0000
  H   H1652     1.0  0.51121  0.10233  0.43223  1.0000
  H   H1653     1.0  0.50425  0.07809  0.43447  1.0000
  H   H1654     1.0  0.50999  0.08969  0.40213  1.0000
  H   H1655     1.0  0.41688  0.06066  0.39693  1.0000
  H   H1656     1.0  0.59982  0.04573  0.10954  1.0000
  H   H1657     1.0  0.42284  0.24126  0.23488  1.0000
  H   H1658     1.0  0.47601  0.13566  0.32702  1.0000
  H   H1659     1.0  0.45603  0.14453  0.33619  1.0000
  H   H1660     1.0  0.48022  0.15847  0.33748  1.0000
  C   C953      1.0  0.38520  0.24327  0.15360  1.0000
  H   H1661     1.0  0.35839  0.08252  0.42309  1.0000
  C   C954      1.0  0.38704  0.06614  0.43426  1.0000
  C   C955      1.0  0.54295  0.01475  0.44832  1.0000
  H   H1662     1.0  0.36715  0.03537  0.01858  1.0000
  C   C956      1.0  0.41589  0.23169  0.21976  1.0000
  C   C957      1.0  0.57737  0.10315  0.13152  1.0000
  C   C958      1.0  0.62021  0.05364  0.05046  1.0000
  H   H1663     1.0  0.60044  0.04246  0.15876  1.0000
  H   H1664     1.0  0.34090  0.03288  0.44133  1.0000
  H   H1665     1.0  0.43043  0.09567  0.40741  1.0000
  H   H1666     1.0  0.58830  0.04313  0.39878  1.0000
  C   C959      1.0  0.61807  0.06640  0.02733  1.0000
  C   C960      1.0  0.58953  0.04907  0.30384  1.0000
  C   C961      1.0  0.66287  0.05604  0.33259  1.0000
  C   C962      1.0  0.38527  0.16838  0.99488  1.0000
  C   C963      1.0  0.37707  0.20382  0.38620  1.0000
  H   H1667     1.0  0.62331  0.04407  0.10110  1.0000
  C   C964      1.0  0.36850  0.24231  0.17431  1.0000
  H   H1668     1.0  0.56980  0.10567  0.15002  1.0000
  H   H1669     1.0  0.38375  0.05408  0.42195  1.0000
  C   C965      1.0  0.44417  0.22385  0.99698  1.0000
  H   H1670     1.0  0.46001  0.24676  0.34629  1.0000
  C   C966      1.0  0.64989  0.03915  0.33044  1.0000
  C   C967      1.0  0.33653  0.08318  0.46651  1.0000
  H   H1671     1.0  0.63095  0.04650  0.04417  1.0000
  H   H1672     1.0  0.62586  0.06228  0.06718  1.0000
  C   C968      1.0  0.45850  0.11521  0.45329  1.0000
  C   C969      1.0  0.55647  0.00510  0.45345  1.0000
  C   C970      1.0  0.64810  0.03489  0.37906  1.0000
  C   C971      1.0  0.44400  0.20516  0.98752  1.0000
  H   H1673     1.0  0.39535  0.23621  0.16171  1.0000
  H   H1674     1.0  0.62494  0.05149  0.41763  1.0000
  H   H1675     1.0  0.43785  0.12328  0.15391  1.0000
  C   C972      1.0  0.54821  0.03354  0.44874  1.0000
  C   C973      1.0  0.38463  0.02587  0.98855  1.0000
  C   C974      1.0  0.55296  0.07550  0.38260  1.0000
  H   H1676     1.0  0.54644  0.02787  0.37662  1.0000
  H   H1677     1.0  0.63225  0.07577  0.02160  1.0000
  H   H1678     1.0  0.61246  0.05872  0.00961  1.0000
  H   H1679     1.0  0.60819  0.07451  0.03337  1.0000
  H   H1680     1.0  0.36144  0.22769  0.17824  1.0000
  H   H1681     1.0  0.62603  0.04725  0.15193  1.0000
  H   H1682     1.0  0.39002  0.23483  0.11360  1.0000
  H   H1683     1.0  0.49025  0.06340  0.16444  1.0000
  H   H1684     1.0  0.35651  0.17755  0.39001  1.0000
  H   H1685     1.0  0.52234  0.04045  0.06768  1.0000
  H   H1686     1.0  0.55055  0.04985  0.15199  1.0000
  C   C975      1.0  0.37788  0.22385  0.37904  1.0000
  H   H1687     1.0  0.51156  0.07773  0.11378  1.0000
  H   H1688     1.0  0.38776  0.22711  0.23774  1.0000
  C   C976      1.0  0.59730  0.04558  0.37999  1.0000
  S   S216      1.0  0.53146  0.04598  0.44337  1.0000
  H   H1689     1.0  0.42074  0.08015  0.48468  1.0000
  Fe  Fe109     1.0  0.36590  0.14353  0.32472  1.0000
  H   H1690     1.0  0.60997  0.07251  0.28434  1.0000
  H   H1691     1.0  0.60957  0.06579  0.42571  1.0000
  H   H1692     1.0  0.34443  0.09598  0.45586  1.0000
  S   S217      1.0  0.35651  0.16972  0.32230  1.0000
  C   C977      1.0  0.57122  0.08320  0.12537  1.0000
  C   C978      1.0  0.45787  0.12217  0.42401  1.0000
  Fe  Fe110     1.0  0.65763  0.04084  0.44957  1.0000
  H   H1693     1.0  0.54054  0.02915  0.07475  1.0000
  C   C979      1.0  0.38267  0.05810  0.99396  1.0000
  S   S218      1.0  0.51307  0.00735  0.20307  1.0000
  H   H1694     1.0  0.54786  0.07038  0.07356  1.0000
  H   H1695     1.0  0.42192  0.01217  0.08913  1.0000
  C   C980      1.0  0.56716  0.04265  0.45362  1.0000
  S   S219      1.0  0.37974  0.09777  0.32707  1.0000
  H   H1696     1.0  0.53980  0.06772  0.37322  1.0000
  C   C981      1.0  0.47814  0.06457  0.17769  1.0000
  H   H1697     1.0  0.58287  0.07301  0.34747  1.0000
  H   H1698     1.0  0.52448  0.02379  0.14536  1.0000
  H   H1699     1.0  0.59555  0.03348  0.03949  1.0000
  H   H1700     1.0  0.57960  0.07208  0.39593  1.0000
  S   S220      1.0  0.35642  0.12288  0.35936  1.0000
  C   C982      1.0  0.58020  0.01529  0.08583  1.0000
  N   N55       1.0  0.54174  0.05763  0.11342  1.0000
  H   H1701     1.0  0.61607  0.05138  0.28076  1.0000
  H   H1702     1.0  0.44286  0.10115  0.18821  1.0000
  C   C983      1.0  0.60824  0.03596  0.10483  1.0000
  S   S221      1.0  0.47817  0.02314  0.22841  1.0000
  H   H1703     1.0  0.39898  0.06546  0.44731  1.0000
  C   C984      1.0  0.66334  0.02526  0.11090  1.0000
  C   C985      1.0  0.53796  0.04195  0.06750  1.0000
  H   H1704     1.0  0.62620  0.06243  0.36935  1.0000
  H   H1705     1.0  0.56396  0.05801  0.08321  1.0000
  H   H1706     1.0  0.46238  0.12835  0.16316  1.0000
  C   C986      1.0  0.60414  0.05788  0.28142  1.0000
  H   H1707     1.0  0.41689  0.21802  0.22607  1.0000
  C   C987      1.0  0.39489  0.23164  0.21773  1.0000
  H   H1708     1.0  0.34576  0.08160  0.48334  1.0000
  S   S222      1.0  0.63415  0.04592  0.47602  1.0000
  H   H1709     1.0  0.42633  0.23913  0.13450  1.0000
  H   H1710     1.0  0.39181  0.07840  0.42078  1.0000
  H   H1711     1.0  0.43936  0.22580  0.11714  1.0000
  H   H1712     1.0  0.64217  0.02670  0.39676  1.0000
  H   H1713     1.0  0.44588  0.02135  0.01239  1.0000
  C   C988      1.0  0.54856  0.05772  0.08448  1.0000
  H   H1714     1.0  0.58087  0.01734  0.35044  1.0000
  Fe  Fe111     1.0  0.66026  0.00835  0.48417  1.0000
  H   H1715     1.0  0.59048  0.04798  0.06388  1.0000
  H   H1716     1.0  0.40528  0.15818  0.01755  1.0000
  C   C989      1.0  0.62090  0.06394  0.41152  1.0000
  C   C990      1.0  0.61335  0.01445  0.07108  1.0000
  H   H1717     1.0  0.41323  0.19766  0.99058  1.0000
  H   H1718     1.0  0.46716  0.05446  0.01036  1.0000
  H   H1719     1.0  0.39229  0.04244  0.02411  1.0000
  C   C991      1.0  0.48894  0.05654  0.09937  1.0000
  H   H1720     1.0  0.35203  0.03830  0.25517  1.0000
  H   H1721     1.0  0.60382  0.03400  0.37953  1.0000
  H   H1722     1.0  0.60843  0.04067  0.33116  1.0000
  C   C992      1.0  0.60068  0.04004  0.05832  1.0000
  S   S223      1.0  0.59846  0.01138  0.99365  1.0000
  H   H1723     1.0  0.35621  0.02633  0.29661  1.0000
  H   H1724     1.0  0.55926  0.08822  0.37058  1.0000
  C   C993      1.0  0.54917  0.07650  0.12308  1.0000
  H   H1725     1.0  0.34873  0.10099  0.19895  1.0000
  H   H1726     1.0  0.48218  0.05037  0.11884  1.0000
  C   C994      1.0  0.54971  0.04521  0.13112  1.0000
  H   H1727     1.0  0.56381  0.02026  0.39584  1.0000
  H   H1728     1.0  0.45569  0.11812  0.13179  1.0000
  C   C995      1.0  0.64243  0.02870  0.35377  1.0000
  H   H1729     1.0  0.33629  0.05067  0.48301  1.0000
  H   H1730     1.0  0.42908  0.24994  0.41962  1.0000
  C   C996      1.0  0.57225  0.02725  0.35308  1.0000
  H   H1731     1.0  0.36782  0.01086  0.33593  1.0000
  H   H1732     1.0  0.45849  0.23332  0.99248  1.0000
  C   C997      1.0  0.39288  0.25071  0.20980  1.0000
  Fe  Fe112     1.0  0.46985  0.00444  0.48275  1.0000
  H   H1733     1.0  0.35842  0.22759  0.22424  1.0000
  H   H1734     1.0  0.44225  0.22696  0.33699  1.0000
  S   S224      1.0  0.65511  0.07750  0.25839  1.0000
  Fe  Fe113     1.0  0.46521  0.00950  0.42159  1.0000
  C   C998      1.0  0.38106  0.12068  0.47757  1.0000
  C   C999      1.0  0.48391  0.00501  0.06590  1.0000
  C   C1000     1.0  0.41565  0.25399  0.42295  1.0000
  H   H1735     1.0  0.39457  0.25318  0.34753  1.0000
  H   H1736     1.0  0.44379  0.02178  0.10562  1.0000
  H   H1737     1.0  0.43903  0.16450  0.01185  1.0000
  C   C1001     1.0  0.34525  0.06966  0.26189  1.0000
  S   S225      1.0  0.65927  0.02775  0.16523  1.0000
  H   H1738     1.0  0.35767  0.24780  0.16406  1.0000
  N   N56       1.0  0.37351  0.25148  0.20036  1.0000
  C   C1002     1.0  0.61250  0.03637  0.15497  1.0000
  C   C1003     1.0  0.33786  0.24271  0.21776  1.0000
  H   H1739     1.0  0.45600  0.20131  0.99722  1.0000
  C   C1004     1.0  0.33568  0.05185  0.36128  1.0000
  H   H1740     1.0  0.44290  0.00526  0.32785  1.0000
  H   H1741     1.0  0.57174  0.02410  0.09418  1.0000
  C   C1005     1.0  0.60899  0.02456  0.13072  1.0000
  H   H1742     1.0  0.34087  0.07031  0.24087  1.0000
  H   H1743     1.0  0.40875  0.01768  0.04604  1.0000
  H   H1744     1.0  0.34305  0.03227  0.38804  1.0000
  H   H1745     1.0  0.45284  0.13843  0.01155  1.0000
  C   C1006     1.0  0.43126  0.00982  0.10524  1.0000
  H   H1746     1.0  0.40358  0.10332  0.99069  1.0000
  H   H1747     1.0  0.36752  0.14695  0.02145  1.0000
  H   H1748     1.0  0.44378  0.02670  0.04684  1.0000
  H   H1749     1.0  0.35446  0.15942  0.00193  1.0000
  C   C1007     1.0  0.41448  0.01380  0.25873  1.0000
  S   S226      1.0  0.44629  0.00963  0.45815  1.0000
  H   H1750     1.0  0.41216  0.24348  0.46457  1.0000
  H   H1751     1.0  0.42781  0.01793  0.24585  1.0000
  H   H1752     1.0  0.61261  0.01288  0.04905  1.0000
  H   H1753     1.0  0.42321  0.00834  0.12481  1.0000
  C   C1008     1.0  0.33223  0.03499  0.37540  1.0000
  H   H1754     1.0  0.56530  0.01674  0.04849  1.0000
  H   H1755     1.0  0.46476  0.14161  0.47079  1.0000
  C   C1009     1.0  0.56948  0.00644  0.06125  1.0000
  C   C1010     1.0  0.40315  0.16093  0.99596  1.0000
  H   H1756     1.0  0.52850  0.00765  0.44399  1.0000
  C   C1011     1.0  0.40675  0.00829  0.00466  1.0000
  H   H1757     1.0  0.36303  0.01054  0.25601  1.0000
  N   N57       1.0  0.38613  0.00788  0.00028  1.0000
  C   C1012     1.0  0.39464  0.01762  0.39317  1.0000
  H   H1758     1.0  0.42870  0.25299  0.34408  1.0000
  H   H1759     1.0  0.55181  0.01947  0.17085  1.0000
  H   H1760     1.0  0.59495  0.04010  0.46390  1.0000
  H   H1761     1.0  0.37824  0.01276  0.04111  1.0000
  Fe  Fe114     1.0  0.46060  0.00932  0.19499  1.0000
  C   C1013     1.0  0.45400  0.12832  0.47314  1.0000
  C   C1014     1.0  0.43785  0.16541  0.98965  1.0000
  H   H1762     1.0  0.33529  0.08580  0.39464  1.0000
  S   S227      1.0  0.66201  0.07556  0.19374  1.0000
  H   H1763     1.0  0.62114  0.01837  0.12887  1.0000
  Fe  Fe115     1.0  0.62178  0.01599  0.47571  1.0000
  C   C1015     1.0  0.33431  0.05193  0.27632  1.0000
  C   C1016     1.0  0.66430  0.03692  0.13205  1.0000
  H   H1764     1.0  0.41567  0.01307  0.98599  1.0000
  H   H1765     1.0  0.36463  0.14320  0.98616  1.0000
  H   H1766     1.0  0.34066  0.19096  0.80650  1.0000
  S   S228      1.0  0.40308  0.14039  0.82482  1.0000
  S   S229      1.0  0.40824  0.11489  0.89335  1.0000
  S   S230      1.0  0.41480  0.11890  0.75786  1.0000
  Fe  Fe116     1.0  0.39065  0.12449  0.54488  1.0000
  S   S231      1.0  0.42238  0.13588  0.53864  1.0000
  H   H1767     1.0  0.46644  0.05898  0.51162  1.0000
  Fe  Fe117     1.0  0.39252  0.12359  0.60639  1.0000
  S   S232      1.0  0.42426  0.13513  0.60427  1.0000
  H   H1768     1.0  0.37535  0.10504  0.74267  1.0000
  Fe  Fe118     1.0  0.41910  0.15394  0.57175  1.0000
  S   S233      1.0  0.43557  0.18327  0.57138  1.0000
  Fe  Fe119     1.0  0.42411  0.11588  0.57168  1.0000
  S   S234      1.0  0.44461  0.09844  0.57260  1.0000
  S   S235      1.0  0.38719  0.14383  0.57615  1.0000
  S   S236      1.0  0.39252  0.10299  0.57561  1.0000
  S   S237      1.0  0.39262  0.24383  0.54892  1.0000
  S   S238      1.0  0.64565  0.01481  0.95038  1.0000
  H   H1769     1.0  0.40060  0.05217  0.61899  1.0000
  H   H1770     1.0  0.42772  0.01435  0.85491  1.0000
  H   H1771     1.0  0.36043  0.10394  0.69868  1.0000
  S   S239      1.0  0.48937  0.04336  0.91901  1.0000
  H   H1772     1.0  0.41304  0.23499  0.68781  1.0000
  Fe  Fe120     1.0  0.50750  0.03876  0.69470  1.0000
  C   C1017     1.0  0.54070  0.04944  0.78136  1.0000
  S   S240      1.0  0.38463  0.24792  0.77496  1.0000
  H   H1773     1.0  0.50755  0.01857  0.58211  1.0000
  S   S241      1.0  0.49785  0.00611  0.94420  1.0000
  H   H1774     1.0  0.62253  0.03679  0.90522  1.0000
  Fe  Fe121     1.0  0.65150  0.04266  0.76316  1.0000
  H   H1775     1.0  0.39693  0.18407  0.63720  1.0000
  S   S242      1.0  0.64811  0.02509  0.80120  1.0000
  H   H1776     1.0  0.38683  0.23621  0.64235  1.0000
  H   H1777     1.0  0.58665  0.01040  0.63850  1.0000
  N   N58       1.0  0.43311  0.06784  0.87708  1.0000
  H   H1778     1.0  0.45298  0.12630  0.98150  1.0000
  Fe  Fe122     1.0  0.63637  0.06921  0.73027  1.0000
  S   S243      1.0  0.61455  0.08541  0.72883  1.0000
  S   S244      1.0  0.62824  0.03910  0.73342  1.0000
  S   S245      1.0  0.52832  0.06631  0.69292  1.0000
  C   C1018     1.0  0.59082  0.07875  0.71791  1.0000
  C   C1019     1.0  0.58164  0.09232  0.71313  1.0000
  C   C1020     1.0  0.56273  0.08814  0.70509  1.0000
  C   C1021     1.0  0.55244  0.07027  0.70213  1.0000
  C   C1022     1.0  0.56151  0.05648  0.70684  1.0000
  C   C1023     1.0  0.58076  0.06073  0.71461  1.0000
  H   H1779     1.0  0.58924  0.10625  0.71565  1.0000
  H   H1780     1.0  0.55594  0.09890  0.70150  1.0000
  H   H1781     1.0  0.55374  0.04262  0.70456  1.0000
  H   H1782     1.0  0.58772  0.05016  0.71844  1.0000
  C   C1024     1.0  0.40001  0.02544  0.74708  1.0000
  H   H1783     1.0  0.35280  0.11024  0.95512  1.0000
  H   H1784     1.0  0.61109  0.06233  0.86410  1.0000
  C   C1025     1.0  0.59565  0.02293  0.64670  1.0000
  N   N59       1.0  0.55389  0.04185  0.79827  1.0000
  H   H1785     1.0  0.43516  0.02543  0.52056  1.0000
  H   H1786     1.0  0.43945  0.14793  0.95649  1.0000
  H   H1787     1.0  0.33833  0.09540  0.90775  1.0000
  H   H1788     1.0  0.58260  0.05950  0.93962  1.0000
  H   H1789     1.0  0.40882  0.01918  0.49100  1.0000
  C   C1026     1.0  0.55038  0.02379  0.97104  1.0000
  H   H1790     1.0  0.42168  0.02362  0.58780  1.0000
  C   C1027     1.0  0.52562  0.07483  0.76981  1.0000
  H   H1791     1.0  0.46059  0.09086  0.83813  1.0000
  H   H1792     1.0  0.51165  0.06479  0.76766  1.0000
  H   H1793     1.0  0.49103  0.01510  0.53889  1.0000
  H   H1794     1.0  0.42186  0.03235  0.54626  1.0000
  S   S246      1.0  0.37531  0.11644  0.64589  1.0000
  C   C1028     1.0  0.38410  0.11043  0.72490  1.0000
  H   H1795     1.0  0.49141  0.09225  0.88619  1.0000
  C   C1029     1.0  0.40459  0.22702  0.55509  1.0000
  C   C1030     1.0  0.39421  0.20883  0.55683  1.0000
  C   C1031     1.0  0.40355  0.19526  0.56168  1.0000
  C   C1032     1.0  0.42333  0.19981  0.56478  1.0000
  C   C1033     1.0  0.43365  0.21799  0.56323  1.0000
  C   C1034     1.0  0.42431  0.23156  0.55867  1.0000
  H   H1796     1.0  0.37895  0.20521  0.55413  1.0000
  H   H1797     1.0  0.39545  0.18132  0.56265  1.0000
  H   H1798     1.0  0.44898  0.22159  0.56526  1.0000
  H   H1799     1.0  0.43243  0.24551  0.55777  1.0000
  C   C1035     1.0  0.44397  0.08671  0.54303  1.0000
  C   C1036     1.0  0.43095  0.08803  0.52355  1.0000
  C   C1037     1.0  0.64718  0.02866  0.58532  1.0000
  C   C1038     1.0  0.57716  0.04719  0.95180  1.0000
  H   H1800     1.0  0.57760  0.00773  0.85000  1.0000
  C   C1039     1.0  0.45660  0.07602  0.53881  1.0000
  H   H1801     1.0  0.42107  0.09616  0.52674  1.0000
  H   H1802     1.0  0.39239  0.21214  0.93996  1.0000
  C   C1040     1.0  0.59155  0.02124  0.67745  1.0000
  H   H1803     1.0  0.46670  0.07498  0.55382  1.0000
  C   C1041     1.0  0.40381  0.11782  0.72671  1.0000
  H   H1804     1.0  0.58818  0.04161  0.82481  1.0000
  H   H1805     1.0  0.38383  0.22948  0.71687  1.0000
  C   C1042     1.0  0.38679  0.11648  0.67652  1.0000
  C   C1043     1.0  0.40652  0.12377  0.67827  1.0000
  C   C1044     1.0  0.41501  0.12432  0.70326  1.0000
  H   H1806     1.0  0.41494  0.22890  0.93496  1.0000
  H   H1807     1.0  0.41517  0.12920  0.66047  1.0000
  H   H1808     1.0  0.43027  0.13004  0.70449  1.0000
  C   C1045     1.0  0.39599  0.11163  0.92497  1.0000
  C   C1046     1.0  0.40556  0.10847  0.94785  1.0000
  N   N60       1.0  0.42130  0.17305  0.98293  1.0000
  C   C1047     1.0  0.42799  0.04945  0.86540  1.0000
  S   S247      1.0  0.36160  0.11923  0.85561  1.0000
  C   C1048     1.0  0.37696  0.11227  0.92776  1.0000
  H   H1809     1.0  0.42030  0.10794  0.94592  1.0000
  Fe  Fe123     1.0  0.39213  0.11777  0.85599  1.0000
  H   H1810     1.0  0.36660  0.23362  0.87507  1.0000
  H   H1811     1.0  0.41046  0.14683  0.94367  1.0000
  C   C1049     1.0  0.37990  0.22525  0.78786  1.0000
  C   C1050     1.0  0.36072  0.21587  0.79307  1.0000
  C   C1051     1.0  0.35562  0.19782  0.80252  1.0000
  C   C1052     1.0  0.36952  0.18852  0.80666  1.0000
  C   C1053     1.0  0.38887  0.19776  0.80152  1.0000
  C   C1054     1.0  0.39407  0.21613  0.79210  1.0000
  H   H1812     1.0  0.34962  0.22263  0.78975  1.0000
  C   C1055     1.0  0.40187  0.04876  0.64053  1.0000
  H   H1813     1.0  0.39977  0.19088  0.80531  1.0000
  H   H1814     1.0  0.40896  0.22315  0.78797  1.0000
  H   H1815     1.0  0.43209  0.17191  0.65915  1.0000
  H   H1816     1.0  0.54080  0.05473  0.63632  1.0000
  N   N61       1.0  0.58923  0.00783  0.88946  1.0000
  H   H1817     1.0  0.44559  0.07206  0.82196  1.0000
  S   S248      1.0  0.43448  0.01687  0.69045  1.0000
  H   H1818     1.0  0.39226  0.23081  0.60860  1.0000
  H   H1819     1.0  0.61070  0.02245  0.64311  1.0000
  H   H1820     1.0  0.57065  0.02746  0.75529  1.0000
  C   C1056     1.0  0.39927  0.22682  0.93788  1.0000
  H   H1821     1.0  0.35513  0.06994  0.74343  1.0000
  C   C1057     1.0  0.36751  0.10965  0.95315  1.0000
  H   H1822     1.0  0.41172  0.21575  0.84440  1.0000
  C   C1058     1.0  0.38602  0.06111  0.92095  1.0000
  H   H1823     1.0  0.39476  0.07405  0.88222  1.0000
  H   H1824     1.0  0.34340  0.04782  0.78139  1.0000
  N   N62       1.0  0.59228  0.03937  0.63240  1.0000
  C   C1059     1.0  0.59984  0.03996  0.60379  1.0000
  C   C1060     1.0  0.60393  0.05572  0.64581  1.0000
  C   C1061     1.0  0.37306  0.16787  0.66262  1.0000
  C   C1062     1.0  0.57111  0.03817  0.63479  1.0000
  C   C1063     1.0  0.56251  0.04708  0.61170  1.0000
  H   H1825     1.0  0.33852  0.11713  0.74297  1.0000
  Fe  Fe124     1.0  0.51037  0.03601  0.94630  1.0000
  C   C1064     1.0  0.60355  0.07437  0.63363  1.0000
  C   C1065     1.0  0.61821  0.08946  0.64649  1.0000
  C   C1066     1.0  0.54170  0.04668  0.61857  1.0000
  C   C1067     1.0  0.44026  0.23227  0.84397  1.0000
  C   C1068     1.0  0.61517  0.03896  0.88670  1.0000
  H   H1826     1.0  0.61576  0.04333  0.60311  1.0000
  H   H1827     1.0  0.59658  0.05099  0.59160  1.0000
  H   H1828     1.0  0.59896  0.05575  0.66701  1.0000
  H   H1829     1.0  0.61916  0.05525  0.64639  1.0000
  H   H1830     1.0  0.36105  0.17474  0.88009  1.0000
  H   H1831     1.0  0.41023  0.04068  0.50466  1.0000
  C   C1069     1.0  0.41794  0.01536  0.87195  1.0000
  H   H1832     1.0  0.56770  0.04398  0.65381  1.0000
  H   H1833     1.0  0.56259  0.03968  0.59309  1.0000
  H   H1834     1.0  0.57060  0.06127  0.60729  1.0000
  H   H1835     1.0  0.36042  0.18200  0.73882  1.0000
  C   C1070     1.0  0.46719  0.00811  0.82484  1.0000
  H   H1836     1.0  0.55220  0.03843  0.53930  1.0000
  C   C1071     1.0  0.59382  0.02820  0.88916  1.0000
  H   H1837     1.0  0.60704  0.07575  0.61182  1.0000
  H   H1838     1.0  0.58925  0.07664  0.63758  1.0000
  H   H1839     1.0  0.63293  0.08812  0.64268  1.0000
  H   H1840     1.0  0.61747  0.10274  0.63788  1.0000
  H   H1841     1.0  0.61523  0.08914  0.66843  1.0000
  H   H1842     1.0  0.63274  0.06655  0.88235  1.0000
  H   H1843     1.0  0.57741  0.02346  0.68278  1.0000
  H   H1844     1.0  0.55227  0.05699  0.83359  1.0000
  H   H1845     1.0  0.60057  0.01237  0.59568  1.0000
  H   H1846     1.0  0.39026  0.07335  0.93271  1.0000
  C   C1072     1.0  0.58997  0.03873  0.96375  1.0000
  S   S249      1.0  0.64703  0.05170  0.98211  1.0000
  H   H1847     1.0  0.41660  0.15674  0.76603  1.0000
  H   H1848     1.0  0.34485  0.17447  0.90821  1.0000
  H   H1849     1.0  0.40963  0.02783  0.72887  1.0000
  C   C1073     1.0  0.38719  0.16364  0.73719  1.0000
  H   H1850     1.0  0.42585  0.25092  0.61237  1.0000
  H   H1851     1.0  0.45561  0.25159  0.62478  1.0000
  C   C1074     1.0  0.47749  0.23958  0.63755  1.0000
  C   C1075     1.0  0.41996  0.17079  0.75757  1.0000
  H   H1852     1.0  0.41676  0.07758  0.84750  1.0000
  C   C1076     1.0  0.58295  0.02274  0.97926  1.0000
  H   H1853     1.0  0.38551  0.14903  0.74210  1.0000
  H   H1854     1.0  0.36180  0.13753  0.71191  1.0000
  H   H1855     1.0  0.53447  0.00630  0.50505  1.0000
  H   H1856     1.0  0.52697  0.02972  0.53332  1.0000
  H   H1857     1.0  0.57715  0.05570  0.77029  1.0000
  H   H1858     1.0  0.53566  0.05251  0.60138  1.0000
  C   C1077     1.0  0.34483  0.14647  0.74252  1.0000
  C   C1078     1.0  0.34861  0.02309  0.70712  1.0000
  H   H1859     1.0  0.38660  0.05660  0.77056  1.0000
  S   S250      1.0  0.38845  0.09607  0.82619  1.0000
  H   H1860     1.0  0.52797  0.01776  0.83991  1.0000
  H   H1861     1.0  0.40382  0.10951  0.48991  1.0000
  C   C1079     1.0  0.36499  0.20053  0.89894  1.0000
  C   C1080     1.0  0.35985  0.17994  0.90035  1.0000
  H   H1862     1.0  0.39208  0.20233  0.73254  1.0000
  H   H1863     1.0  0.44684  0.00672  0.57118  1.0000
  H   H1864     1.0  0.38146  0.23067  0.84787  1.0000
  H   H1865     1.0  0.36301  0.20495  0.91941  1.0000
  H   H1866     1.0  0.39776  0.17784  0.68578  1.0000
  H   H1867     1.0  0.33636  0.15650  0.74399  1.0000
  C   C1081     1.0  0.54934  0.04273  0.82775  1.0000
  H   H1868     1.0  0.36339  0.21501  0.73483  1.0000
  H   H1869     1.0  0.40063  0.15182  0.89756  1.0000
  H   H1870     1.0  0.55901  0.03701  0.83999  1.0000
  H   H1871     1.0  0.54559  0.02285  0.74887  1.0000
  H   H1872     1.0  0.34713  0.15099  0.70002  1.0000
  Fe  Fe125     1.0  0.48011  0.00965  0.98048  1.0000
  H   H1873     1.0  0.37606  0.23521  0.91945  1.0000
  C   C1082     1.0  0.55139  0.02244  0.79170  1.0000
  H   H1874     1.0  0.55950  0.01503  0.51080  1.0000
  S   S251      1.0  0.54169  0.04955  0.93805  1.0000
  H   H1875     1.0  0.41484  0.04745  0.85373  1.0000
  C   C1083     1.0  0.43752  0.14683  0.97864  1.0000
  C   C1084     1.0  0.45259  0.01821  0.60903  1.0000
  H   H1876     1.0  0.44365  0.24484  0.72973  1.0000
  H   H1877     1.0  0.43931  0.04834  0.85052  1.0000
  S   S252      1.0  0.48766  0.02933  0.66148  1.0000
  C   C1085     1.0  0.55737  0.03958  0.95507  1.0000
  H   H1878     1.0  0.38758  0.04932  0.93322  1.0000
  Fe  Fe126     1.0  0.65078  0.03971  0.51073  1.0000
  H   H1879     1.0  0.58846  0.03253  0.90816  1.0000
  N   N63       1.0  0.45442  0.07809  0.64875  1.0000
  C   C1086     1.0  0.43334  0.07275  0.64318  1.0000
  C   C1087     1.0  0.46254  0.09831  0.64488  1.0000
  C   C1088     1.0  0.46445  0.06931  0.62839  1.0000
  C   C1089     1.0  0.45829  0.07147  0.67623  1.0000
  C   C1090     1.0  0.44795  0.07755  0.70022  1.0000
  H   H1880     1.0  0.44133  0.11082  0.81918  1.0000
  C   C1091     1.0  0.48671  0.07494  0.62799  1.0000
  C   C1092     1.0  0.44939  0.11041  0.65276  1.0000
  C   C1093     1.0  0.46055  0.13029  0.65180  1.0000
  C   C1094     1.0  0.45016  0.06722  0.72610  1.0000
  H   H1881     1.0  0.46687  0.13464  0.63132  1.0000
  H   H1882     1.0  0.42521  0.07986  0.65594  1.0000
  H   H1883     1.0  0.47605  0.10278  0.65571  1.0000
  H   H1884     1.0  0.46655  0.10211  0.62331  1.0000
  H   H1885     1.0  0.46018  0.05446  0.63186  1.0000
  H   H1886     1.0  0.45491  0.05648  0.67739  1.0000
  H   H1887     1.0  0.47382  0.07605  0.68004  1.0000
  H   H1888     1.0  0.43243  0.07528  0.69738  1.0000
  H   H1889     1.0  0.45445  0.09205  0.70323  1.0000
  H   H1890     1.0  0.42330  0.04792  0.66857  1.0000
  H   H1891     1.0  0.49202  0.07079  0.64711  1.0000
  H   H1892     1.0  0.43779  0.10895  0.63834  1.0000
  H   H1893     1.0  0.44264  0.10686  0.67302  1.0000
  H   H1894     1.0  0.45079  0.13868  0.65704  1.0000
  H   H1895     1.0  0.47212  0.13261  0.66635  1.0000
  C   C1095     1.0  0.36209  0.05898  0.74757  1.0000
  H   H1896     1.0  0.46554  0.06932  0.73028  1.0000
  H   H1897     1.0  0.44302  0.07211  0.74312  1.0000
  H   H1898     1.0  0.44344  0.05257  0.72456  1.0000
  C   C1096     1.0  0.52365  0.03839  0.86506  1.0000
  N   N64       1.0  0.44126  0.22838  0.65035  1.0000
  C   C1097     1.0  0.44297  0.20987  0.65875  1.0000
  C   C1098     1.0  0.42205  0.22647  0.63828  1.0000
  S   S253      1.0  0.65604  0.05683  0.54708  1.0000
  H   H1899     1.0  0.36414  0.21662  0.69862  1.0000
  C   C1099     1.0  0.44408  0.19716  0.63583  1.0000
  C   C1100     1.0  0.38855  0.00575  0.57055  1.0000
  S   S254      1.0  0.45198  0.06110  0.95906  1.0000
  C   C1101     1.0  0.44521  0.17871  0.64685  1.0000
  H   H1900     1.0  0.45664  0.23918  0.68512  1.0000
  H   H1901     1.0  0.43046  0.20265  0.67192  1.0000
  H   H1902     1.0  0.45564  0.21082  0.67118  1.0000
  H   H1903     1.0  0.41036  0.21799  0.65172  1.0000
  H   H1904     1.0  0.42115  0.21906  0.61948  1.0000
  C   C1102     1.0  0.64522  0.02158  0.61190  1.0000
  H   H1905     1.0  0.41322  0.00522  0.61091  1.0000
  H   H1906     1.0  0.43115  0.19490  0.62389  1.0000
  H   H1907     1.0  0.45684  0.20277  0.62229  1.0000
  H   H1908     1.0  0.35560  0.18275  0.70448  1.0000
  H   H1909     1.0  0.39072  0.20256  0.69638  1.0000
  C   C1103     1.0  0.59285  0.02229  0.58879  1.0000
  H   H1910     1.0  0.44847  0.24610  0.84837  1.0000
  H   H1911     1.0  0.44643  0.17012  0.62987  1.0000
  H   H1912     1.0  0.45799  0.18005  0.65908  1.0000
  H   H1913     1.0  0.62271  0.03495  0.86955  1.0000
  H   H1914     1.0  0.61140  0.01808  0.83774  1.0000
  C   C1104     1.0  0.56316  0.01540  0.98314  1.0000
  H   H1915     1.0  0.39215  0.15821  0.94264  1.0000
  S   S255      1.0  0.36128  0.16572  0.81914  1.0000
  S   S256      1.0  0.37088  0.12047  0.51014  1.0000
  C   C1105     1.0  0.38180  0.23685  0.86772  1.0000
  H   H1916     1.0  0.58610  0.03336  0.87313  1.0000
  C   C1106     1.0  0.41080  0.16277  0.90764  1.0000
  H   H1917     1.0  0.46994  0.00954  0.78156  1.0000
  Fe  Fe127     1.0  0.39595  0.11871  0.79485  1.0000
  H   H1918     1.0  0.64309  0.01981  0.56904  1.0000
  H   H1919     1.0  0.36760  0.05550  0.72825  1.0000
  H   H1920     1.0  0.39542  0.20201  0.89824  1.0000
  C   C1107     1.0  0.40756  0.15978  0.93799  1.0000
  H   H1921     1.0  0.34572  0.04170  0.94511  1.0000
  S   S257      1.0  0.45648  0.01375  0.95493  1.0000
  C   C1108     1.0  0.33529  0.04311  0.84728  1.0000
  C   C1109     1.0  0.39823  0.06336  0.89504  1.0000
  S   S258      1.0  0.48425  0.03365  0.48707  1.0000
  Fe  Fe128     1.0  0.37235  0.14062  0.82236  1.0000
  C   C1110     1.0  0.37568  0.10964  0.69989  1.0000
  C   C1111     1.0  0.38572  0.20852  0.88731  1.0000
  C   C1112     1.0  0.39563  0.23490  0.96442  1.0000
  H   H1922     1.0  0.35459  0.20461  0.88594  1.0000
  C   C1113     1.0  0.41990  0.06868  0.90062  1.0000
  H   H1923     1.0  0.38955  0.07809  0.75320  1.0000
  H   H1924     1.0  0.36334  0.02897  0.71343  1.0000
  S   S259      1.0  0.48411  0.02928  0.72662  1.0000
  H   H1925     1.0  0.53324  0.07792  0.74993  1.0000
  C   C1114     1.0  0.40697  0.02602  0.50966  1.0000
  C   C1115     1.0  0.39129  0.23592  0.91433  1.0000
  H   H1926     1.0  0.38013  0.23363  0.96805  1.0000
  C   C1116     1.0  0.35717  0.14987  0.71593  1.0000
  N   N65       1.0  0.39324  0.22878  0.88693  1.0000
  H   H1927     1.0  0.35368  0.14756  0.76033  1.0000
  C   C1117     1.0  0.42066  0.02242  0.53056  1.0000
  H   H1928     1.0  0.53625  0.01456  0.79577  1.0000
  H   H1929     1.0  0.41421  0.23896  0.83465  1.0000
  H   H1930     1.0  0.45369  0.09207  0.91622  1.0000
  C   C1118     1.0  0.42290  0.05242  0.64735  1.0000
  H   H1931     1.0  0.35013  0.04590  0.84055  1.0000
  H   H1932     1.0  0.53289  0.03262  0.62282  1.0000
  H   H1933     1.0  0.45432  0.23075  0.61042  1.0000
  H   H1934     1.0  0.38658  0.01024  0.94245  1.0000
  H   H1935     1.0  0.40818  0.03182  0.76420  1.0000
  C   C1119     1.0  0.43022  0.24558  0.72023  1.0000
  H   H1936     1.0  0.35975  0.01072  0.67414  1.0000
  C   C1120     1.0  0.39613  0.24099  0.62406  1.0000
  C   C1121     1.0  0.65020  0.03299  0.63327  1.0000
  S   S260      1.0  0.65805  0.07281  0.76247  1.0000
  H   H1937     1.0  0.46008  0.07209  0.60779  1.0000
  C   C1122     1.0  0.61732  0.05919  0.88310  1.0000
  C   C1123     1.0  0.59686  0.02558  0.55855  1.0000
  H   H1938     1.0  0.43924  0.03307  0.89447  1.0000
  C   C1124     1.0  0.38234  0.20093  0.71561  1.0000
  H   H1939     1.0  0.39898  0.25049  0.91446  1.0000
  C   C1125     1.0  0.52880  0.03233  0.83773  1.0000
  H   H1940     1.0  0.52290  0.08745  0.77694  1.0000
  N   N66       1.0  0.37436  0.16605  0.71471  1.0000
  H   H1941     1.0  0.41492  0.03324  0.90223  1.0000
  H   H1942     1.0  0.61018  0.06401  0.90019  1.0000
  C   C1126     1.0  0.37711  0.10663  0.97605  1.0000
  H   H1943     1.0  0.59053  0.03250  0.79272  1.0000
  C   C1127     1.0  0.45648  0.06697  0.51491  1.0000
  H   H1944     1.0  0.40839  0.17582  0.90078  1.0000
  H   H1945     1.0  0.60523  0.04448  0.96073  1.0000
  H   H1946     1.0  0.38561  0.20363  0.86664  1.0000
  H   H1947     1.0  0.36959  0.11502  0.91040  1.0000
  H   H1948     1.0  0.47989  0.22640  0.64362  1.0000
  H   H1949     1.0  0.42729  0.09186  0.80194  1.0000
  H   H1950     1.0  0.39320  0.15994  0.63535  1.0000
  C   C1128     1.0  0.41883  0.22979  0.84904  1.0000
  H   H1951     1.0  0.39186  0.02142  0.51715  1.0000
  H   H1952     1.0  0.37725  0.17103  0.61931  1.0000
  H   H1953     1.0  0.46096  0.10145  0.88288  1.0000
  H   H1954     1.0  0.61857  0.00687  0.89478  1.0000
  H   H1955     1.0  0.56243  0.02384  0.63641  1.0000
  C   C1129     1.0  0.57422  0.05298  0.79222  1.0000
  H   H1956     1.0  0.57641  0.06660  0.80038  1.0000
  H   H1957     1.0  0.45425  0.06163  0.90249  1.0000
  C   C1130     1.0  0.43079  0.07896  0.49973  1.0000
  H   H1958     1.0  0.36177  0.15513  0.66044  1.0000
  S   S261      1.0  0.49406  0.03903  0.98404  1.0000
  H   H1959     1.0  0.42305  0.08261  0.90783  1.0000
  H   H1960     1.0  0.39374  0.05050  0.88482  1.0000
  C   C1131     1.0  0.46164  0.09052  0.89752  1.0000
  C   C1132     1.0  0.37280  0.21639  0.71650  1.0000
  H   H1961     1.0  0.42257  0.06047  0.91813  1.0000
  C   C1133     1.0  0.54483  0.01271  0.51983  1.0000
  S   S262      1.0  0.63637  0.01012  0.51263  1.0000
  C   C1134     1.0  0.37915  0.06690  0.76464  1.0000
  H   H1962     1.0  0.61304  0.06149  0.77663  1.0000
  Fe  Fe129     1.0  0.47151  0.04293  0.95639  1.0000
  H   H1963     1.0  0.58849  0.03453  0.55020  1.0000
  H   H1964     1.0  0.57731  0.01622  0.59276  1.0000
  C   C1135     1.0  0.48258  0.09325  0.90432  1.0000
  S   S263      1.0  0.65861  0.07183  0.69693  1.0000
  H   H1965     1.0  0.53017  0.06629  0.80959  1.0000
  C   C1136     1.0  0.44142  0.09778  0.81047  1.0000
  H   H1966     1.0  0.55169  0.07802  0.79058  1.0000
  C   C1137     1.0  0.43123  0.08160  0.85583  1.0000
  H   H1967     1.0  0.53439  0.03726  0.87987  1.0000
  H   H1968     1.0  0.45248  0.10045  0.79387  1.0000
  C   C1138     1.0  0.40910  0.17176  0.73215  1.0000
  H   H1969     1.0  0.48818  0.10680  0.91237  1.0000
  H   H1970     1.0  0.37418  0.07233  0.78295  1.0000
  H   H1971     1.0  0.49082  0.07029  0.58570  1.0000
  H   H1972     1.0  0.40343  0.01425  0.86455  1.0000
  H   H1973     1.0  0.48395  0.08302  0.91983  1.0000
  C   C1139     1.0  0.65504  0.02404  0.85459  1.0000
  C   C1140     1.0  0.54171  0.03118  0.52509  1.0000
  C   C1141     1.0  0.53777  0.06774  0.78969  1.0000
  H   H1974     1.0  0.34062  0.07182  0.94862  1.0000
  H   H1975     1.0  0.64994  0.00957  0.85357  1.0000
  H   H1976     1.0  0.38970  0.15410  0.68620  1.0000
  Fe  Fe130     1.0  0.65165  0.04176  0.70166  1.0000
  H   H1977     1.0  0.49022  0.05114  0.60812  1.0000
  H   H1978     1.0  0.43480  0.17933  0.94329  1.0000
  C   C1142     1.0  0.38464  0.16651  0.68781  1.0000
  C   C1143     1.0  0.65400  0.04724  0.57996  1.0000
  Fe  Fe131     1.0  0.47577  0.01372  0.91881  1.0000
  C   C1144     1.0  0.59022  0.04493  0.80304  1.0000
  C   C1145     1.0  0.45331  0.07162  0.88637  1.0000
  H   H1979     1.0  0.41818  0.24099  0.73532  1.0000
  H   H1980     1.0  0.41265  0.18604  0.72484  1.0000
  H   H1981     1.0  0.36634  0.17920  0.66350  1.0000
  H   H1982     1.0  0.49261  0.08971  0.62463  1.0000
  H   H1983     1.0  0.54611  0.05139  0.76009  1.0000
  C   C1146     1.0  0.41416  0.23386  0.87829  1.0000
  H   H1984     1.0  0.62109  0.05198  0.80601  1.0000
  H   H1985     1.0  0.60281  0.03126  0.68741  1.0000
  C   C1147     1.0  0.38597  0.17093  0.63716  1.0000
  C   C1148     1.0  0.44587  0.08483  0.83168  1.0000
  H   H1986     1.0  0.42211  0.22676  0.89155  1.0000
  H   H1987     1.0  0.43210  0.09486  0.86462  1.0000
  S   S264      1.0  0.51811  0.01420  0.69727  1.0000
  C   C1149     1.0  0.35198  0.24588  0.60476  1.0000
  C   C1150     1.0  0.49509  0.06605  0.60551  1.0000
  H   H1988     1.0  0.51095  0.07023  0.60584  1.0000
  C   C1151     1.0  0.45659  0.23765  0.62966  1.0000
  H   H1989     1.0  0.46321  0.06962  0.87004  1.0000
  Fe  Fe132     1.0  0.35854  0.09865  0.82404  1.0000
  H   H1990     1.0  0.39453  0.05681  0.65292  1.0000
  C   C1152     1.0  0.66335  0.05372  0.83273  1.0000
  H   H1991     1.0  0.41440  0.18748  0.94812  1.0000
  C   C1153     1.0  0.60995  0.05815  0.79835  1.0000
  H   H1992     1.0  0.41461  0.16398  0.71699  1.0000
  H   H1993     1.0  0.45432  0.12285  0.49394  1.0000
  H   H1994     1.0  0.48111  0.24874  0.65436  1.0000
  H   H1995     1.0  0.42937  0.04401  0.63449  1.0000
  H   H1996     1.0  0.42557  0.16249  0.90155  1.0000
  H   H1997     1.0  0.54362  0.03941  0.50601  1.0000
  C   C1154     1.0  0.44369  0.06858  0.49521  1.0000
  H   H1998     1.0  0.61081  0.07076  0.80888  1.0000
  C   C1155     1.0  0.42538  0.03312  0.88567  1.0000
  H   H1999     1.0  0.52632  0.03967  0.78071  1.0000
  S   S265      1.0  0.36584  0.12012  0.79076  1.0000
  C   C1156     1.0  0.65618  0.03507  0.83134  1.0000
  H   H2000     1.0  0.44320  0.23005  0.82262  1.0000
  H   H2001     1.0  0.51776  0.03405  0.82381  1.0000
  H   H2002     1.0  0.42480  0.21968  0.70372  1.0000
  H   H2003     1.0  0.43124  0.07710  0.62225  1.0000
  H   H2004     1.0  0.39460  0.03427  0.64469  1.0000
  H   H2005     1.0  0.38286  0.16907  0.75605  1.0000
  H   H2006     1.0  0.39751  0.03235  0.97541  1.0000
  H   H2007     1.0  0.33903  0.06305  0.90343  1.0000
  H   H2008     1.0  0.43560  0.17548  0.75289  1.0000
  H   H2009     1.0  0.41619  0.17951  0.77278  1.0000
  C   C1157     1.0  0.42015  0.17574  0.95296  1.0000
  H   H2010     1.0  0.55985  0.01595  0.80507  1.0000
  C   C1158     1.0  0.65704  0.05156  0.62788  1.0000
  H   H2011     1.0  0.44531  0.22245  0.85662  1.0000
  H   H2012     1.0  0.46623  0.01446  0.61102  1.0000
  H   H2013     1.0  0.39366  0.00755  0.68496  1.0000
  H   H2014     1.0  0.52280  0.05257  0.86354  1.0000
  H   H2015     1.0  0.59280  0.01259  0.54845  1.0000
  H   H2016     1.0  0.39228  0.02054  0.56594  1.0000
  C   C1159     1.0  0.41717  0.24439  0.63049  1.0000
  S   S266      1.0  0.64716  0.02357  0.66636  1.0000
  H   H2017     1.0  0.38838  0.03195  0.74343  1.0000
  H   H2018     1.0  0.36244  0.02361  0.58793  1.0000
  H   H2019     1.0  0.37081  0.05896  0.91603  1.0000
  C   C1160     1.0  0.36722  0.18253  0.71840  1.0000
  H   H2020     1.0  0.36940  0.17499  0.91388  1.0000
  C   C1161     1.0  0.49147  0.24755  0.61399  1.0000
  C   C1162     1.0  0.33562  0.25223  0.59294  1.0000
  H   H2021     1.0  0.34444  0.03272  0.69312  1.0000
  C   C1163     1.0  0.66038  0.03165  0.87921  1.0000
  H   H2022     1.0  0.53512  0.01793  0.97386  1.0000
  C   C1164     1.0  0.47544  0.00550  0.79992  1.0000
  H   H2023     1.0  0.50948  0.02974  0.87247  1.0000
  C   C1165     1.0  0.42662  0.23375  0.69617  1.0000
  C   C1166     1.0  0.39614  0.10595  0.97328  1.0000
  C   C1167     1.0  0.44333  0.23950  0.67483  1.0000
  H   H2024     1.0  0.44586  0.01781  0.62937  1.0000
  C   C1168     1.0  0.34793  0.04251  0.76253  1.0000
  H   H2025     1.0  0.45534  0.01413  0.82540  1.0000
  H   H2026     1.0  0.42079  0.24847  0.88077  1.0000
  H   H2027     1.0  0.65931  0.02307  0.89696  1.0000
  H   H2028     1.0  0.44677  0.20623  0.96550  1.0000
  H   H2029     1.0  0.45585  0.03208  0.59987  1.0000
  H   H2030     1.0  0.61233  0.03192  0.55400  1.0000
  C   C1169     1.0  0.39150  0.00527  0.75314  1.0000
  H   H2031     1.0  0.66095  0.06048  0.64407  1.0000
  C   C1170     1.0  0.55618  0.01929  0.76211  1.0000
  H   H2032     1.0  0.34625  0.23262  0.61564  1.0000
  C   C1171     1.0  0.65888  0.05865  0.60135  1.0000
  Fe  Fe133     1.0  0.46549  0.01639  0.69357  1.0000
  H   H2033     1.0  0.35618  0.03297  0.76921  1.0000
  Fe  Fe134     1.0  0.66434  0.04312  0.94950  1.0000
  H   H2034     1.0  0.42404  0.13665  0.98448  1.0000
  H   H2035     1.0  0.38411  0.17472  0.97498  1.0000
  H   H2036     1.0  0.46793  0.14904  0.98280  1.0000
  H   H2037     1.0  0.37129  0.05668  0.97929  1.0000
  H   H2038     1.0  0.42824  0.08237  0.97834  1.0000
  H   H2039     1.0  0.35163  0.01064  0.93668  1.0000
  H   H2040     1.0  0.45161  0.17448  0.98156  1.0000
  H   H2041     1.0  0.55572  0.02203  0.90121  1.0000
  H   H2042     1.0  0.40359  0.24939  0.96437  1.0000
  H   H2043     1.0  0.33221  0.01584  0.97641  1.0000
  H   H2044     1.0  0.36219  0.24431  0.58862  1.0000
  H   H2045     1.0  0.48921  0.23823  0.59722  1.0000
  H   H2046     1.0  0.66455  0.06235  0.81498  1.0000
  H   H2047     1.0  0.33445  0.01733  0.86714  1.0000
  H   H2048     1.0  0.38487  0.00993  0.61359  1.0000
  H   H2049     1.0  0.55547  0.00800  0.55760  1.0000
  S   S267      1.0  0.46182  0.00442  0.87967  1.0000
  C   C1172     1.0  0.33467  0.01764  0.73196  1.0000
  C   C1173     1.0  0.49636  0.00648  0.57897  1.0000
  H   H2050     1.0  0.40044  0.22768  0.98132  1.0000
  H   H2051     1.0  0.37223  0.02388  0.97532  1.0000
  H   H2052     1.0  0.63967  0.00723  0.61599  1.0000
  H   H2053     1.0  0.35091  0.00791  0.61466  1.0000
  C   C1174     1.0  0.41964  0.00883  0.59029  1.0000
  C   C1175     1.0  0.35862  0.00919  0.59487  1.0000
  C   C1176     1.0  0.34914  0.00663  0.69123  1.0000
  H   H2054     1.0  0.34093  0.00875  0.74472  1.0000
  H   H2055     1.0  0.50640  0.24968  0.62036  1.0000
  H   H2056     1.0  0.60507  0.00645  0.92497  1.0000
  C   C1177     1.0  0.55358  0.00792  0.89523  1.0000
  H   H2057     1.0  0.55229  0.00768  0.87326  1.0000
  C   C1178     1.0  0.33602  0.00431  0.93910  1.0000
  H   H2058     1.0  0.39674  0.06343  0.98322  1.0000
  Fe  Fe135     1.0  0.63015  0.02272  0.98531  1.0000
  H   H2059     1.0  0.66410  0.07305  0.59735  1.0000
  H   H2060     1.0  0.33441  0.05230  0.71458  1.0000
  S   S268      1.0  0.33388  0.07406  0.81748  1.0000
  H   H2061     1.0  0.41989  0.25408  0.64665  1.0000
  H   H2062     1.0  0.39352  0.25375  0.61617  1.0000
  H   H2063     1.0  0.33137  0.01706  0.80131  1.0000
  C   C1179     1.0  0.43952  0.00510  0.59119  1.0000
  H   H2064     1.0  0.44537  0.25395  0.66910  1.0000
  C   C1180     1.0  0.48711  0.00448  0.55438  1.0000
  Fe  Fe136     1.0  0.44618  0.29065  0.31175  1.0000
  S   S269      1.0  0.41877  0.29867  0.31111  1.0000
  S   S270      1.0  0.46093  0.28951  0.35106  1.0000
  Fe  Fe137     1.0  0.44540  0.28469  0.25063  1.0000
  S   S271      1.0  0.41801  0.29257  0.24697  1.0000
  S   S272      1.0  0.45906  0.27444  0.21534  1.0000
  Fe  Fe138     1.0  0.43167  0.31503  0.27354  1.0000
  S   S273      1.0  0.43092  0.34429  0.26734  1.0000
  Fe  Fe139     1.0  0.40898  0.27508  0.28483  1.0000
  S   S274      1.0  0.45967  0.30802  0.27533  1.0000
  C   C1181     1.0  0.37845  0.37154  0.07922  1.0000
  Fe  Fe140     1.0  0.42869  0.28217  0.06342  1.0000
  C   C1182     1.0  0.39603  0.25509  0.36945  1.0000
  S   S275      1.0  0.45447  0.28587  0.08909  1.0000
  Fe  Fe141     1.0  0.41316  0.28399  0.00641  1.0000
  S   S276      1.0  0.38315  0.27382  0.02361  1.0000
  H   H2065     1.0  0.52095  0.48974  0.13843  1.0000
  Fe  Fe142     1.0  0.39226  0.29302  0.05607  1.0000
  S   S277      1.0  0.37633  0.31373  0.06385  1.0000
  H   H2066     1.0  0.41872  0.39049  0.42833  1.0000
  S   S278      1.0  0.42185  0.30427  0.03813  1.0000
  C   C1183     1.0  0.40537  0.39406  0.48462  1.0000
  H   H2067     1.0  0.36347  0.31319  0.44854  1.0000
  H   H2068     1.0  0.55729  0.48561  0.28377  1.0000
  H   H2069     1.0  0.40142  0.28184  0.17748  1.0000
  H   H2070     1.0  0.42005  0.42668  0.26887  1.0000
  S   S279      1.0  0.38323  0.41231  0.39732  1.0000
  S   S280      1.0  0.35466  0.36517  0.40677  1.0000
  Fe  Fe143     1.0  0.50812  0.43638  0.23103  1.0000
  S   S281      1.0  0.48048  0.44396  0.22972  1.0000
  S   S282      1.0  0.50694  0.40653  0.23602  1.0000
  Fe  Fe144     1.0  0.53192  0.47660  0.22410  1.0000
  S   S283      1.0  0.50531  0.48599  0.22229  1.0000
  Fe  Fe145     1.0  0.39378  0.25438  0.04901  1.0000
  Fe  Fe146     1.0  0.49443  0.46585  0.25669  1.0000
  S   S284      1.0  0.48016  0.47260  0.29437  1.0000
  Fe  Fe147     1.0  0.49485  0.46291  0.19535  1.0000
  S   S285      1.0  0.47912  0.46584  0.15757  1.0000
  S   S286      1.0  0.52153  0.45743  0.25980  1.0000
  S   S287      1.0  0.52207  0.45439  0.19523  1.0000
  Fe  Fe148     1.0  0.49426  0.45686  0.00392  1.0000
  S   S288      1.0  0.50281  0.44454  0.04203  1.0000
  Fe  Fe149     1.0  0.49836  0.45809  0.44383  1.0000
  S   S289      1.0  0.50461  0.44508  0.40586  1.0000
  N   N67       1.0  0.49212  0.35696  0.33096  1.0000
  H   H2071     1.0  0.50527  0.37087  0.29377  1.0000
  Fe  Fe150     1.0  0.33353  0.36116  0.44167  1.0000
  H   H2072     1.0  0.43656  0.42685  0.35447  1.0000
  C   C1184     1.0  0.48669  0.46074  0.12544  1.0000
  C   C1185     1.0  0.50176  0.45275  0.12190  1.0000
  C   C1186     1.0  0.50670  0.44804  0.09621  1.0000
  C   C1187     1.0  0.49689  0.45158  0.07375  1.0000
  C   C1188     1.0  0.48225  0.46011  0.07718  1.0000
  C   C1189     1.0  0.47709  0.46453  0.10292  1.0000
  H   H2073     1.0  0.50955  0.45017  0.13895  1.0000
  H   H2074     1.0  0.51822  0.44168  0.09367  1.0000
  H   H2075     1.0  0.47461  0.46300  0.06011  1.0000
  H   H2076     1.0  0.45944  0.39513  0.31956  1.0000
  C   C1190     1.0  0.48699  0.46471  0.32517  1.0000
  C   C1191     1.0  0.49770  0.45205  0.32630  1.0000
  C   C1192     1.0  0.50294  0.44608  0.35112  1.0000
  C   C1193     1.0  0.49735  0.45254  0.37506  1.0000
  C   C1194     1.0  0.48611  0.46474  0.37394  1.0000
  C   C1195     1.0  0.48112  0.47090  0.34911  1.0000
  H   H2077     1.0  0.50172  0.44660  0.30819  1.0000
  H   H2078     1.0  0.51141  0.43644  0.35180  1.0000
  H   H2079     1.0  0.48119  0.46941  0.39216  1.0000
  H   H2080     1.0  0.47284  0.48067  0.34852  1.0000
  C   C1196     1.0  0.39726  0.42523  0.42152  1.0000
  C   C1197     1.0  0.38898  0.43225  0.44275  1.0000
  C   C1198     1.0  0.40067  0.44449  0.45947  1.0000
  H   H2081     1.0  0.42638  0.26643  0.45973  1.0000
  H   H2082     1.0  0.44461  0.46468  0.25140  1.0000
  H   H2083     1.0  0.50524  0.31796  0.28197  1.0000
  H   H2084     1.0  0.37358  0.42891  0.44554  1.0000
  H   H2085     1.0  0.38403  0.37063  0.47288  1.0000
  C   C1199     1.0  0.37919  0.31907  0.44883  1.0000
  C   C1200     1.0  0.54793  0.50019  0.09428  1.0000
  H   H2086     1.0  0.34303  0.31355  0.03008  1.0000
  H   H2087     1.0  0.38658  0.35429  0.98770  1.0000
  H   H2088     1.0  0.44873  0.37694  0.42737  1.0000
  H   H2089     1.0  0.36268  0.45513  0.06222  1.0000
  H   H2090     1.0  0.41699  0.26728  0.41272  1.0000
  H   H2091     1.0  0.51309  0.35594  0.36050  1.0000
  H   H2092     1.0  0.50848  0.33735  0.40323  1.0000
  C   C1201     1.0  0.43319  0.45210  0.24857  1.0000
  H   H2093     1.0  0.53514  0.48862  0.09285  1.0000
  S   S290      1.0  0.38026  0.25436  0.29110  1.0000
  C   C1202     1.0  0.36164  0.31153  0.09288  1.0000
  C   C1203     1.0  0.36010  0.29758  0.11224  1.0000
  C   C1204     1.0  0.34849  0.29672  0.13558  1.0000
  S   S291      1.0  0.39966  0.27252  0.08365  1.0000
  C   C1205     1.0  0.37739  0.32499  0.99176  1.0000
  H   H2094     1.0  0.36781  0.28753  0.10922  1.0000
  H   H2095     1.0  0.33973  0.44749  0.04749  1.0000
  C   C1206     1.0  0.45219  0.36147  0.25884  1.0000
  C   C1207     1.0  0.46904  0.35742  0.25022  1.0000
  C   C1208     1.0  0.48566  0.37136  0.24350  1.0000
  C   C1209     1.0  0.48568  0.38951  0.24530  1.0000
  C   C1210     1.0  0.46888  0.39358  0.25418  1.0000
  C   C1211     1.0  0.45219  0.37963  0.26074  1.0000
  H   H2096     1.0  0.46922  0.34355  0.24824  1.0000
  H   H2097     1.0  0.49855  0.36805  0.23659  1.0000
  H   H2098     1.0  0.46873  0.40747  0.25599  1.0000
  H   H2099     1.0  0.43926  0.38292  0.26743  1.0000
  C   C1212     1.0  0.45228  0.29497  0.38245  1.0000
  C   C1213     1.0  0.43831  0.30444  0.38431  1.0000
  C   C1214     1.0  0.43310  0.30998  0.40934  1.0000
  C   C1215     1.0  0.44126  0.30559  0.43295  1.0000
  C   C1216     1.0  0.45470  0.29554  0.43123  1.0000
  C   C1217     1.0  0.46031  0.29043  0.40607  1.0000
  H   H2100     1.0  0.43192  0.30796  0.36641  1.0000
  H   H2101     1.0  0.42276  0.31782  0.41040  1.0000
  H   H2102     1.0  0.46128  0.29224  0.44915  1.0000
  C   C1218     1.0  0.35848  0.43014  0.04119  1.0000
  C   C1219     1.0  0.45577  0.27720  0.18055  1.0000
  C   C1220     1.0  0.46716  0.27043  0.16284  1.0000
  C   C1221     1.0  0.46604  0.27274  0.13507  1.0000
  C   C1222     1.0  0.45308  0.28140  0.12432  1.0000
  C   C1223     1.0  0.44109  0.28779  0.14193  1.0000
  C   C1224     1.0  0.44265  0.28591  0.17006  1.0000
  H   H2103     1.0  0.36290  0.39763  0.05806  1.0000
  C   C1225     1.0  0.41091  0.36661  0.40498  1.0000
  H   H2104     1.0  0.43133  0.29487  0.13386  1.0000
  H   H2105     1.0  0.56919  0.48515  0.31473  1.0000
  C   C1226     1.0  0.41510  0.44706  0.34557  1.0000
  C   C1227     1.0  0.38421  0.42453  0.31394  1.0000
  C   C1228     1.0  0.36830  0.40733  0.31048  1.0000
  H   H2106     1.0  0.40042  0.41141  0.33949  1.0000
  H   H2107     1.0  0.40812  0.43819  0.36305  1.0000
  H   H2108     1.0  0.40440  0.45405  0.33858  1.0000
  H   H2109     1.0  0.37928  0.43172  0.33039  1.0000
  H   H2110     1.0  0.38584  0.43291  0.29507  1.0000
  H   H2111     1.0  0.36578  0.39863  0.32918  1.0000
  H   H2112     1.0  0.35482  0.41088  0.30598  1.0000
  H   H2113     1.0  0.37202  0.39967  0.29368  1.0000
  C   C1229     1.0  0.54422  0.48327  0.03962  1.0000
  H   H2114     1.0  0.43415  0.29156  0.18360  1.0000
  C   C1230     1.0  0.39926  0.37373  0.47858  1.0000
  H   H2115     1.0  0.39650  0.38186  0.37930  1.0000
  C   C1231     1.0  0.35528  0.44878  0.04450  1.0000
  H   H2116     1.0  0.43653  0.48272  0.38547  1.0000
  S   S292      1.0  0.43571  0.26624  0.28728  1.0000
  H   H2117     1.0  0.38565  0.31746  0.42897  1.0000
  S   S293      1.0  0.42328  0.26278  0.02967  1.0000
  C   C1232     1.0  0.38114  0.28129  0.36427  1.0000
  H   H2118     1.0  0.56560  0.46864  0.03142  1.0000
  H   H2119     1.0  0.47038  0.41894  0.31504  1.0000
  H   H2120     1.0  0.47740  0.26378  0.17063  1.0000
  H   H2121     1.0  0.44191  0.45567  0.36701  1.0000
  H   H2122     1.0  0.39497  0.29118  0.36778  1.0000
  H   H2123     1.0  0.37217  0.41801  0.99346  1.0000
  C   C1233     1.0  0.49464  0.34084  0.40573  1.0000
  H   H2124     1.0  0.57213  0.49782  0.05263  1.0000
  H   H2125     1.0  0.42444  0.36260  0.40409  1.0000
  H   H2126     1.0  0.35299  0.33965  0.28080  1.0000
  H   H2127     1.0  0.38501  0.31159  0.46443  1.0000
  C   C1234     1.0  0.37298  0.27095  0.19812  1.0000
  H   H2128     1.0  0.48353  0.32797  0.37033  1.0000
  H   H2129     1.0  0.36068  0.45762  0.02633  1.0000
  H   H2130     1.0  0.41065  0.42877  0.00834  1.0000
  C   C1235     1.0  0.41034  0.37830  0.37983  1.0000
  H   H2131     1.0  0.38966  0.38585  0.99829  1.0000
  C   C1236     1.0  0.43175  0.46181  0.35656  1.0000
  C   C1237     1.0  0.40867  0.37675  0.43066  1.0000
  H   H2132     1.0  0.37474  0.37475  0.03730  1.0000
  H   H2133     1.0  0.47113  0.28313  0.40490  1.0000
  H   H2134     1.0  0.42473  0.36251  0.20889  1.0000
  C   C1238     1.0  0.35925  0.32125  0.23375  1.0000
  H   H2135     1.0  0.54356  0.47644  0.31433  1.0000
  H   H2136     1.0  0.39418  0.37914  0.43004  1.0000
  H   H2137     1.0  0.39391  0.30730  0.20004  1.0000
  C   C1239     1.0  0.55605  0.48709  0.30572  1.0000
  H   H2138     1.0  0.39729  0.31150  0.16428  1.0000
  C   C1240     1.0  0.50573  0.39164  0.32164  1.0000
  Fe  Fe151     1.0  0.46672  0.46874  0.47377  1.0000
  C   C1241     1.0  0.41563  0.35183  0.19706  1.0000
  H   H2139     1.0  0.38202  0.35847  0.07725  1.0000
  H   H2140     1.0  0.52361  0.49686  0.30396  1.0000
  H   H2141     1.0  0.40966  0.26567  0.37106  1.0000
  C   C1242     1.0  0.37872  0.40098  0.05479  1.0000
  H   H2142     1.0  0.37744  0.34606  0.43908  1.0000
  C   C1243     1.0  0.41354  0.25640  0.45303  1.0000
  C   C1244     1.0  0.42428  0.47297  0.37683  1.0000
  H   H2143     1.0  0.40084  0.26141  0.45765  1.0000
  C   C1245     1.0  0.40513  0.34752  0.45741  1.0000
  H   H2144     1.0  0.47716  0.36989  0.44504  1.0000
  S   S294      1.0  0.43568  0.31455  0.46346  1.0000
  H   H2145     1.0  0.35036  0.42428  0.02377  1.0000
  H   H2146     1.0  0.49830  0.30560  0.31381  1.0000
  H   H2147     1.0  0.36291  0.36880  0.08451  1.0000
  C   C1246     1.0  0.45897  0.40854  0.32637  1.0000
  H   H2148     1.0  0.53642  0.40455  0.31934  1.0000
  C   C1247     1.0  0.38786  0.30308  0.18044  1.0000
  H   H2149     1.0  0.37567  0.33997  0.47405  1.0000
  H   H2150     1.0  0.55749  0.50117  0.47358  1.0000
  C   C1248     1.0  0.40654  0.41872  0.02555  1.0000
  H   H2151     1.0  0.38134  0.28003  0.15645  1.0000
  C   C1249     1.0  0.38505  0.34342  0.00343  1.0000
  H   H2152     1.0  0.42222  0.39086  0.37932  1.0000
  H   H2153     1.0  0.37346  0.30545  0.17934  1.0000
  H   H2154     1.0  0.38584  0.33945  0.19122  1.0000
  H   H2155     1.0  0.52157  0.41943  0.31218  1.0000
  C   C1250     1.0  0.43187  0.37373  0.46516  1.0000
  H   H2156     1.0  0.43680  0.38864  0.46609  1.0000
  Fe  Fe152     1.0  0.35353  0.39396  0.40648  1.0000
  C   C1251     1.0  0.52326  0.40568  0.30944  1.0000
  H   H2157     1.0  0.38639  0.44202  0.02152  1.0000
  H   H2158     1.0  0.36936  0.28687  0.37150  1.0000
  H   H2159     1.0  0.43732  0.44563  0.23067  1.0000
  H   H2160     1.0  0.38446  0.40722  0.07357  1.0000
  C   C1252     1.0  0.35140  0.32433  0.09662  1.0000
  C   C1253     1.0  0.50669  0.37218  0.31582  1.0000
  H   H2161     1.0  0.41514  0.48061  0.36700  1.0000
  C   C1254     1.0  0.46646  0.37299  0.45913  1.0000
  H   H2162     1.0  0.54319  0.46008  0.01580  1.0000
  H   H2163     1.0  0.52277  0.34482  0.30574  1.0000
  H   H2164     1.0  0.40600  0.41124  0.30481  1.0000
  H   H2165     1.0  0.41618  0.41656  0.06665  1.0000
  H   H2166     1.0  0.43777  0.45954  0.30164  1.0000
  C   C1255     1.0  0.49798  0.35658  0.35966  1.0000
  H   H2167     1.0  0.38676  0.37873  0.09566  1.0000
  N   N68       1.0  0.36894  0.33967  0.24327  1.0000
  C   C1256     1.0  0.38980  0.34423  0.23422  1.0000
  C   C1257     1.0  0.36773  0.34007  0.27342  1.0000
  H   H2168     1.0  0.36734  0.31138  0.23959  1.0000
  C   C1258     1.0  0.35924  0.35307  0.23158  1.0000
  C   C1259     1.0  0.36757  0.37283  0.23949  1.0000
  C   C1260     1.0  0.39446  0.34967  0.20411  1.0000
  H   H2169     1.0  0.41716  0.43930  0.05513  1.0000
  C   C1261     1.0  0.37425  0.32503  0.28883  1.0000
  C   C1262     1.0  0.37425  0.32775  0.31895  1.0000
  C   C1263     1.0  0.36216  0.38614  0.21990  1.0000
  S   S295      1.0  0.47536  0.44298  0.47360  1.0000
  H   H2170     1.0  0.41276  0.34231  0.44133  1.0000
  H   H2171     1.0  0.39575  0.33258  0.23870  1.0000
  H   H2172     1.0  0.39855  0.35530  0.24581  1.0000
  H   H2173     1.0  0.37665  0.35318  0.28007  1.0000
  H   H2174     1.0  0.36002  0.39824  0.01228  1.0000
  C   C1264     1.0  0.38431  0.39614  0.98736  1.0000
  H   H2175     1.0  0.34710  0.28590  0.15049  1.0000
  H   H2176     1.0  0.35897  0.35243  0.20937  1.0000
  H   H2177     1.0  0.34389  0.34944  0.23814  1.0000
  H   H2178     1.0  0.38337  0.37662  0.24004  1.0000
  H   H2179     1.0  0.36177  0.37455  0.25978  1.0000
  S   S296      1.0  0.51986  0.46729  0.47559  1.0000
  H   H2180     1.0  0.39146  0.36278  0.19911  1.0000
  H   H2181     1.0  0.41169  0.37079  0.36170  1.0000
  H   H2182     1.0  0.35215  0.33482  0.08135  1.0000
  H   H2183     1.0  0.36450  0.31158  0.28563  1.0000
  H   H2184     1.0  0.38895  0.32494  0.28222  1.0000
  H   H2185     1.0  0.38431  0.34083  0.32340  1.0000
  H   H2186     1.0  0.35965  0.32744  0.32675  1.0000
  H   H2187     1.0  0.37888  0.31677  0.32946  1.0000
  H   H2188     1.0  0.36696  0.39999  0.22721  1.0000
  H   H2189     1.0  0.36903  0.38592  0.19980  1.0000
  H   H2190     1.0  0.34645  0.38272  0.21800  1.0000
  C   C1265     1.0  0.41927  0.42624  0.04908  1.0000
  H   H2191     1.0  0.49786  0.36940  0.36905  1.0000
  N   N69       1.0  0.38514  0.41411  0.03108  1.0000
  H   H2192     1.0  0.49705  0.35402  0.41521  1.0000
  H   H2193     1.0  0.35382  0.28926  0.00781  1.0000
  S   S297      1.0  0.33579  0.34558  0.48024  1.0000
  C   C1266     1.0  0.38672  0.28325  0.17672  1.0000
  H   H2194     1.0  0.33550  0.31473  0.26477  1.0000
  N   N70       1.0  0.47983  0.38853  0.14107  1.0000
  C   C1267     1.0  0.49897  0.39245  0.15394  1.0000
  C   C1268     1.0  0.46990  0.36851  0.14392  1.0000
  C   C1269     1.0  0.48346  0.39367  0.11149  1.0000
  C   C1270     1.0  0.46730  0.39960  0.15221  1.0000
  C   C1271     1.0  0.46356  0.39833  0.18287  1.0000
  C   C1272     1.0  0.51119  0.41231  0.15187  1.0000
  C   C1273     1.0  0.46572  0.38858  0.09379  1.0000
  C   C1274     1.0  0.47368  0.35782  0.16925  1.0000
  C   C1275     1.0  0.46141  0.33828  0.17021  1.0000
  C   C1276     1.0  0.45079  0.41034  0.19101  1.0000
  C   C1277     1.0  0.53057  0.41422  0.16433  1.0000
  C   C1278     1.0  0.47134  0.39418  0.06440  1.0000
  H   H2195     1.0  0.50775  0.38406  0.14503  1.0000
  H   H2196     1.0  0.49728  0.38856  0.17568  1.0000
  H   H2197     1.0  0.45414  0.36616  0.14259  1.0000
  H   H2198     1.0  0.47441  0.36136  0.12692  1.0000
  H   H2199     1.0  0.49449  0.38748  0.10296  1.0000
  H   H2200     1.0  0.48932  0.40849  0.10814  1.0000
  H   H2201     1.0  0.47333  0.41414  0.14611  1.0000
  H   H2202     1.0  0.45296  0.39569  0.14349  1.0000
  H   H2203     1.0  0.47710  0.40281  0.19338  1.0000
  H   H2204     1.0  0.45592  0.38442  0.18979  1.0000
  H   H2205     1.0  0.51433  0.41740  0.13080  1.0000
  H   H2206     1.0  0.50371  0.42101  0.16256  1.0000
  H   H2207     1.0  0.45487  0.39560  0.09994  1.0000
  H   H2208     1.0  0.45891  0.37386  0.09493  1.0000
  H   H2209     1.0  0.48886  0.35733  0.16895  1.0000
  H   H2210     1.0  0.47075  0.36391  0.18802  1.0000
  H   H2211     1.0  0.46411  0.33109  0.18873  1.0000
  H   H2212     1.0  0.44597  0.33770  0.17024  1.0000
  H   H2213     1.0  0.46504  0.33113  0.15272  1.0000
  H   H2214     1.0  0.45759  0.42462  0.18447  1.0000
  H   H2215     1.0  0.43662  0.40590  0.18195  1.0000
  H   H2216     1.0  0.44851  0.40953  0.21312  1.0000
  H   H2217     1.0  0.53879  0.40607  0.15375  1.0000
  H   H2218     1.0  0.53903  0.42855  0.16267  1.0000
  H   H2219     1.0  0.52868  0.40982  0.18584  1.0000
  H   H2220     1.0  0.47730  0.40902  0.06194  1.0000
  H   H2221     1.0  0.48215  0.38749  0.05683  1.0000
  H   H2222     1.0  0.45854  0.39023  0.05211  1.0000
  H   H2223     1.0  0.44433  0.44560  0.43152  1.0000
  H   H2224     1.0  0.42838  0.39991  0.33063  1.0000
  H   H2225     1.0  0.41866  0.35565  0.17544  1.0000
  N   N71       1.0  0.41129  0.36785  0.45725  1.0000
  C   C1279     1.0  0.38017  0.43139  0.03749  1.0000
  H   H2226     1.0  0.53832  0.47439  0.05745  1.0000
  H   H2227     1.0  0.37661  0.31461  0.00788  1.0000
  H   H2228     1.0  0.46174  0.40916  0.34809  1.0000
  H   H2229     1.0  0.50493  0.39378  0.34337  1.0000
  C   C1280     1.0  0.55385  0.47257  0.02119  1.0000
  H   H2230     1.0  0.42380  0.42439  0.40168  1.0000
  H   H2231     1.0  0.51587  0.33250  0.33752  1.0000
  H   H2232     1.0  0.55967  0.48061  0.00247  1.0000
  H   H2233     1.0  0.35945  0.32152  0.21148  1.0000
  H   H2234     1.0  0.46552  0.47084  0.10540  1.0000
  H   H2235     1.0  0.39883  0.38429  0.04794  1.0000
  H   H2236     1.0  0.41583  0.46420  0.39347  1.0000
  H   H2237     1.0  0.52495  0.40392  0.28765  1.0000
  H   H2238     1.0  0.44503  0.43637  0.27562  1.0000
  H   H2239     1.0  0.48497  0.33038  0.41932  1.0000
  H   H2240     1.0  0.41954  0.45553  0.24476  1.0000
  H   H2241     1.0  0.43966  0.47123  0.34031  1.0000
  H   H2242     1.0  0.49300  0.39446  0.31257  1.0000
  S   S298      1.0  0.48176  0.48037  0.00580  1.0000
  H   H2243     1.0  0.41941  0.33898  0.20140  1.0000
  C   C1281     1.0  0.51131  0.33443  0.31690  1.0000
  C   C1282     1.0  0.44049  0.42960  0.04106  1.0000
  H   H2244     1.0  0.40882  0.40269  0.46594  1.0000
  C   C1283     1.0  0.38344  0.38265  0.05280  1.0000
  C   C1284     1.0  0.42535  0.44788  0.29852  1.0000
  C   C1285     1.0  0.49213  0.33974  0.31746  1.0000
  C   C1286     1.0  0.47270  0.36061  0.32928  1.0000
  C   C1287     1.0  0.45487  0.34409  0.33168  1.0000
  C   C1288     1.0  0.43662  0.34979  0.33771  1.0000
  C   C1289     1.0  0.50931  0.31669  0.30305  1.0000
  H   H2245     1.0  0.48782  0.34069  0.29636  1.0000
  H   H2246     1.0  0.48131  0.32798  0.32691  1.0000
  H   H2247     1.0  0.47105  0.37036  0.34450  1.0000
  H   H2248     1.0  0.47146  0.36721  0.30946  1.0000
  H   H2249     1.0  0.47136  0.34397  0.38280  1.0000
  H   H2250     1.0  0.45329  0.33715  0.31249  1.0000
  H   H2251     1.0  0.45591  0.33404  0.34739  1.0000
  H   H2252     1.0  0.43494  0.36008  0.32251  1.0000
  H   H2253     1.0  0.42402  0.33790  0.33731  1.0000
  H   H2254     1.0  0.43707  0.35534  0.35792  1.0000
  H   H2255     1.0  0.52316  0.31310  0.30299  1.0000
  H   H2256     1.0  0.39904  0.35418  0.40406  1.0000
  C   C1290     1.0  0.43939  0.41145  0.32093  1.0000
  C   C1291     1.0  0.40322  0.42005  0.32060  1.0000
  H   H2257     1.0  0.44924  0.43409  0.05858  1.0000
  H   H2258     1.0  0.44366  0.41712  0.03416  1.0000
  H   H2259     1.0  0.44471  0.44031  0.02483  1.0000
  H   H2260     1.0  0.43754  0.41083  0.29912  1.0000
  S   S299      1.0  0.43488  0.46608  0.47513  1.0000
  H   H2261     1.0  0.47134  0.38748  0.46361  1.0000
  S   S300      1.0  0.48866  0.48343  0.44236  1.0000
  H   H2262     1.0  0.51320  0.49220  0.05948  1.0000
  H   H2263     1.0  0.53235  0.48634  0.02855  1.0000
  C   C1292     1.0  0.38340  0.33901  0.45493  1.0000
  H   H2264     1.0  0.52148  0.37147  0.31987  1.0000
  N   N72       1.0  0.42034  0.43592  0.32372  1.0000
  H   H2265     1.0  0.41352  0.45401  0.29372  1.0000
  C   C1293     1.0  0.42067  0.44952  0.45537  1.0000
  C   C1294     1.0  0.43095  0.43922  0.27317  1.0000
  H   H2266     1.0  0.38662  0.43671  0.05640  1.0000
  C   C1295     1.0  0.43727  0.42937  0.33233  1.0000
  H   H2267     1.0  0.45082  0.44004  0.32772  1.0000
  H   H2268     1.0  0.41117  0.40687  0.01916  1.0000
  C   C1296     1.0  0.42895  0.44178  0.43494  1.0000
  C   C1297     1.0  0.41728  0.42979  0.41798  1.0000
  H   H2269     1.0  0.35222  0.42175  0.05943  1.0000
  C   C1298     1.0  0.48551  0.34142  0.37870  1.0000
  Fe  Fe153     1.0  0.50881  0.49185  0.47584  1.0000
  C   C1299     1.0  0.44694  0.36877  0.44648  1.0000
  H   H2270     1.0  0.33888  0.28381  0.05450  1.0000
  H   H2271     1.0  0.35857  0.27203  0.19278  1.0000
  S   S301      1.0  0.56147  0.49662  0.22410  1.0000
  H   H2272     1.0  0.39346  0.25724  0.14807  1.0000
  H   H2273     1.0  0.37519  0.34526  0.01991  1.0000
  H   H2274     1.0  0.40927  0.34166  0.47633  1.0000
  C   C1300     1.0  0.37459  0.40684  0.00644  1.0000
  H   H2275     1.0  0.44308  0.35427  0.44224  1.0000
  H   H2276     1.0  0.47553  0.26799  0.12180  1.0000
  C   C1301     1.0  0.34120  0.29301  0.99999  1.0000
  C   C1302     1.0  0.33874  0.30994  0.13961  1.0000
  H   H2277     1.0  0.33382  0.29084  0.21657  1.0000
  C   C1303     1.0  0.34021  0.32370  0.12006  1.0000
  H   H2278     1.0  0.36556  0.25427  0.37564  1.0000
  H   H2279     1.0  0.38080  0.26590  0.40091  1.0000
  H   H2280     1.0  0.39924  0.34431  0.01184  1.0000
  H   H2281     1.0  0.51710  0.49847  0.34831  1.0000
  C   C1304     1.0  0.37984  0.26333  0.37925  1.0000
  H   H2282     1.0  0.33282  0.33397  0.12297  1.0000
  C   C1305     1.0  0.33245  0.30152  0.02316  1.0000
  H   H2283     1.0  0.37574  0.27710  0.21797  1.0000
  H   H2284     1.0  0.37979  0.27936  0.34243  1.0000
  H   H2285     1.0  0.33627  0.25646  0.22062  1.0000
  H   H2286     1.0  0.34910  0.33008  0.99187  1.0000
  H   H2287     1.0  0.46574  0.36460  0.47788  1.0000
  H   H2288     1.0  0.39418  0.45043  0.47525  1.0000
  H   H2289     1.0  0.54426  0.48751  0.14743  1.0000
  H   H2290     1.0  0.40446  0.25705  0.19472  1.0000
  C   C1306     1.0  0.55859  0.50101  0.04694  1.0000
  H   H2291     1.0  0.39643  0.25880  0.22784  1.0000
  C   C1307     1.0  0.33797  0.31334  0.24311  1.0000
  C   C1308     1.0  0.53572  0.49723  0.14307  1.0000
  H   H2292     1.0  0.50081  0.50284  0.39064  1.0000
  H   H2293     1.0  0.55983  0.49391  0.09821  1.0000
  H   H2294     1.0  0.33632  0.42458  0.47938  1.0000
  S   S302      1.0  0.33353  0.39016  0.44264  1.0000
  H   H2295     1.0  0.33890  0.28553  0.25065  1.0000
  H   H2296     1.0  0.57896  0.50330  0.39481  1.0000
  H   H2297     1.0  0.43694  0.25455  0.37743  1.0000
  Fe  Fe154     1.0  0.44415  0.28691  0.81234  1.0000
  S   S303      1.0  0.41581  0.29259  0.80653  1.0000
  S   S304      1.0  0.45475  0.28347  0.85407  1.0000
  Fe  Fe155     1.0  0.45128  0.28564  0.75098  1.0000
  S   S305      1.0  0.42321  0.29097  0.74221  1.0000
  S   S306      1.0  0.47157  0.28234  0.71734  1.0000
  Fe  Fe156     1.0  0.43119  0.31200  0.77304  1.0000
  S   S307      1.0  0.42844  0.34074  0.76690  1.0000
  Fe  Fe157     1.0  0.41180  0.27076  0.77665  1.0000
  S   S308      1.0  0.45984  0.30740  0.78051  1.0000
  H   H2298     1.0  0.46520  0.38005  0.88379  1.0000
  Fe  Fe158     1.0  0.44815  0.29659  0.56361  1.0000
  S   S309      1.0  0.41856  0.28811  0.58205  1.0000
  S   S310      1.0  0.47268  0.29761  0.59109  1.0000
  Fe  Fe159     1.0  0.43435  0.30257  0.50637  1.0000
  S   S311      1.0  0.40379  0.29399  0.52199  1.0000
  H   H2299     1.0  0.33964  0.25633  0.52781  1.0000
  Fe  Fe160     1.0  0.41380  0.31100  0.55672  1.0000
  S   S312      1.0  0.40010  0.33261  0.56911  1.0000
  C   C1309     1.0  0.42699  0.43600  0.83226  1.0000
  S   S313      1.0  0.44397  0.32080  0.54048  1.0000
  S   S314      1.0  0.44203  0.27919  0.52764  1.0000
  C   C1310     1.0  0.47318  0.32864  0.94183  1.0000
  H   H2300     1.0  0.35452  0.25690  0.92088  1.0000
  H   H2301     1.0  0.40780  0.41477  0.75630  1.0000
  H   H2302     1.0  0.56193  0.47681  0.79001  1.0000
  S   S315      1.0  0.37413  0.41385  0.89766  1.0000
  S   S316      1.0  0.34415  0.36757  0.91047  1.0000
  Fe  Fe161     1.0  0.50354  0.43416  0.72693  1.0000
  S   S317      1.0  0.47636  0.44251  0.72466  1.0000
  S   S318      1.0  0.50241  0.40436  0.73108  1.0000
  Fe  Fe162     1.0  0.52859  0.47406  0.72476  1.0000
  S   S319      1.0  0.50259  0.48447  0.72286  1.0000
  H   H2303     1.0  0.39664  0.40557  0.97614  1.0000
  Fe  Fe163     1.0  0.48968  0.46271  0.75447  1.0000
  S   S320      1.0  0.47359  0.46717  0.79192  1.0000
  Fe  Fe164     1.0  0.49252  0.46298  0.69315  1.0000
  S   S321      1.0  0.47904  0.46906  0.65479  1.0000
  S   S322      1.0  0.51625  0.45352  0.75821  1.0000
  S   S323      1.0  0.51918  0.45347  0.69343  1.0000
  Fe  Fe165     1.0  0.49541  0.45511  0.50532  1.0000
  S   S324      1.0  0.49820  0.43926  0.54343  1.0000
  Fe  Fe166     1.0  0.49442  0.45812  0.94213  1.0000
  S   S325      1.0  0.50142  0.44512  0.90440  1.0000
  H   H2304     1.0  0.37717  0.39878  0.48760  1.0000
  H   H2305     1.0  0.53306  0.49559  0.53084  1.0000
  H   H2306     1.0  0.39915  0.36593  0.49787  1.0000
  H   H2307     1.0  0.46077  0.38732  0.93084  1.0000
  C   C1311     1.0  0.48530  0.46132  0.62388  1.0000
  C   C1312     1.0  0.49843  0.45095  0.62198  1.0000
  C   C1313     1.0  0.50223  0.44416  0.59726  1.0000
  C   C1314     1.0  0.49343  0.44818  0.57411  1.0000
  C   C1315     1.0  0.48068  0.45891  0.57593  1.0000
  C   C1316     1.0  0.47647  0.46527  0.60074  1.0000
  H   H2308     1.0  0.50540  0.44790  0.63961  1.0000
  H   H2309     1.0  0.51216  0.43589  0.59603  1.0000
  H   H2310     1.0  0.47364  0.46192  0.55837  1.0000
  H   H2311     1.0  0.36802  0.27959  0.91125  1.0000
  C   C1317     1.0  0.48150  0.46099  0.82301  1.0000
  C   C1318     1.0  0.49209  0.44828  0.82499  1.0000
  C   C1319     1.0  0.49794  0.44339  0.85007  1.0000
  C   C1320     1.0  0.49321  0.45114  0.87339  1.0000
  C   C1321     1.0  0.48228  0.46357  0.87142  1.0000
  C   C1322     1.0  0.47646  0.46847  0.84636  1.0000
  H   H2312     1.0  0.49537  0.44184  0.80734  1.0000
  H   H2313     1.0  0.50614  0.43355  0.85142  1.0000
  H   H2314     1.0  0.47821  0.46939  0.88917  1.0000
  H   H2315     1.0  0.46804  0.47813  0.84509  1.0000
  C   C1323     1.0  0.38922  0.42613  0.92157  1.0000
  C   C1324     1.0  0.40903  0.42811  0.91898  1.0000
  C   C1325     1.0  0.42170  0.43907  0.93615  1.0000
  C   C1326     1.0  0.41466  0.44831  0.95592  1.0000
  C   C1327     1.0  0.54681  0.49762  0.87392  1.0000
  C   C1328     1.0  0.38214  0.43502  0.94173  1.0000
  H   H2316     1.0  0.41462  0.42144  0.90328  1.0000
  H   H2317     1.0  0.43695  0.44072  0.93372  1.0000
  C   C1329     1.0  0.37447  0.26442  0.84599  1.0000
  H   H2318     1.0  0.45580  0.36210  0.56155  1.0000
  H   H2319     1.0  0.44552  0.36412  0.52959  1.0000
  C   C1330     1.0  0.41113  0.44515  0.84039  1.0000
  C   C1331     1.0  0.54566  0.48285  0.85325  1.0000
  C   C1332     1.0  0.45648  0.37105  0.54343  1.0000
  H   H2320     1.0  0.37820  0.38046  0.95198  1.0000
  S   S326      1.0  0.55888  0.49282  0.72599  1.0000
  S   S327      1.0  0.33219  0.30853  0.65606  1.0000
  C   C1333     1.0  0.35095  0.31481  0.63173  1.0000
  C   C1334     1.0  0.35208  0.32948  0.61390  1.0000
  C   C1335     1.0  0.36717  0.33477  0.59469  1.0000
  C   C1336     1.0  0.38122  0.32541  0.59315  1.0000
  C   C1337     1.0  0.37995  0.31050  0.61066  1.0000
  C   C1338     1.0  0.36481  0.30521  0.62998  1.0000
  H   H2321     1.0  0.33574  0.38176  0.82294  1.0000
  H   H2322     1.0  0.36777  0.34602  0.58077  1.0000
  H   H2323     1.0  0.39074  0.30320  0.60957  1.0000
  H   H2324     1.0  0.36392  0.29379  0.64366  1.0000
  C   C1339     1.0  0.44911  0.35852  0.75757  1.0000
  C   C1340     1.0  0.46702  0.35526  0.75329  1.0000
  C   C1341     1.0  0.48313  0.36948  0.74554  1.0000
  C   C1342     1.0  0.48163  0.38719  0.74186  1.0000
  C   C1343     1.0  0.46372  0.39054  0.74618  1.0000
  C   C1344     1.0  0.44754  0.37626  0.75395  1.0000
  H   H2325     1.0  0.46851  0.34175  0.75559  1.0000
  H   H2326     1.0  0.49688  0.36673  0.74228  1.0000
  H   H2327     1.0  0.46232  0.40409  0.74338  1.0000
  H   H2328     1.0  0.43375  0.37894  0.75699  1.0000
  C   C1345     1.0  0.44184  0.28523  0.88403  1.0000
  C   C1346     1.0  0.44776  0.27955  0.90859  1.0000
  C   C1347     1.0  0.43812  0.28118  0.93290  1.0000
  C   C1348     1.0  0.42262  0.28876  0.93280  1.0000
  C   C1349     1.0  0.41655  0.29422  0.90823  1.0000
  C   C1350     1.0  0.42604  0.29239  0.88395  1.0000
  H   H2329     1.0  0.51852  0.48391  0.57801  1.0000
  H   H2330     1.0  0.44302  0.27707  0.95171  1.0000
  H   H2331     1.0  0.40459  0.30012  0.90799  1.0000
  H   H2332     1.0  0.42137  0.29686  0.86524  1.0000
  C   C1351     1.0  0.47058  0.28752  0.68265  1.0000
  C   C1352     1.0  0.48689  0.28819  0.66660  1.0000
  C   C1353     1.0  0.48712  0.29149  0.63888  1.0000
  C   C1354     1.0  0.47088  0.29372  0.62639  1.0000
  C   C1355     1.0  0.45438  0.29322  0.64230  1.0000
  C   C1356     1.0  0.45430  0.29034  0.67050  1.0000
  H   H2333     1.0  0.37631  0.37725  0.82452  1.0000
  H   H2334     1.0  0.37115  0.39414  0.84554  1.0000
  H   H2335     1.0  0.44180  0.29515  0.63293  1.0000
  H   H2336     1.0  0.44160  0.28988  0.68269  1.0000
  H   H2337     1.0  0.46244  0.42732  0.63936  1.0000
  H   H2338     1.0  0.45913  0.35835  0.93721  1.0000
  H   H2339     1.0  0.50016  0.49997  0.60609  1.0000
  H   H2340     1.0  0.44367  0.41047  0.89256  1.0000
  H   H2341     1.0  0.33741  0.39498  0.77667  1.0000
  H   H2342     1.0  0.48952  0.26073  0.60671  1.0000
  H   H2343     1.0  0.41058  0.38724  0.83560  1.0000
  H   H2344     1.0  0.40548  0.40421  0.85664  1.0000
  H   H2345     1.0  0.37842  0.32005  0.51363  1.0000
  H   H2346     1.0  0.43351  0.42042  0.75352  1.0000
  H   H2347     1.0  0.47406  0.35744  0.90902  1.0000
  H   H2348     1.0  0.42067  0.33516  0.91729  1.0000
  H   H2349     1.0  0.38928  0.45340  0.97371  1.0000
  S   S328      1.0  0.33759  0.35927  0.65912  1.0000
  S   S329      1.0  0.43950  0.26434  0.78379  1.0000
  H   H2350     1.0  0.55429  0.47420  0.86198  1.0000
  C   C1357     1.0  0.38996  0.34866  0.91642  1.0000
  H   H2351     1.0  0.44050  0.44676  0.82780  1.0000
  Fe  Fe167     1.0  0.34362  0.39653  0.90647  1.0000
  H   H2352     1.0  0.43055  0.46230  0.54736  1.0000
  H   H2353     1.0  0.33885  0.30865  0.91872  1.0000
  H   H2354     1.0  0.36994  0.37959  0.60024  1.0000
  N   N73       1.0  0.42900  0.40248  0.57721  1.0000
  H   H2355     1.0  0.47410  0.33604  0.96061  1.0000
  S   S330      1.0  0.48547  0.48015  0.50736  1.0000
  H   H2356     1.0  0.38617  0.33374  0.91898  1.0000
  H   H2357     1.0  0.43451  0.40293  0.79257  1.0000
  H   H2358     1.0  0.41517  0.43401  0.57376  1.0000
  H   H2359     1.0  0.34003  0.30763  0.56737  1.0000
  H   H2360     1.0  0.52436  0.47993  0.80890  1.0000
  H   H2361     1.0  0.35170  0.28030  0.59165  1.0000
  H   H2362     1.0  0.53414  0.46549  0.54972  1.0000
  H   H2363     1.0  0.45783  0.42271  0.83819  1.0000
  H   H2364     1.0  0.45609  0.38626  0.81368  1.0000
  C   C1358     1.0  0.35852  0.29590  0.95647  1.0000
  C   C1359     1.0  0.34325  0.27075  0.57759  1.0000
  C   C1360     1.0  0.33768  0.29707  0.55224  1.0000
  H   H2365     1.0  0.44428  0.39407  0.60982  1.0000
  H   H2366     1.0  0.49955  0.28612  0.67568  1.0000
  C   C1361     1.0  0.44823  0.41917  0.64720  1.0000
  C   C1362     1.0  0.36356  0.31775  0.52192  1.0000
  H   H2367     1.0  0.36310  0.32915  0.53467  1.0000
  C   C1363     1.0  0.34640  0.31990  0.75086  1.0000
  C   C1364     1.0  0.40410  0.40962  0.81307  1.0000
  C   C1365     1.0  0.46294  0.34766  0.85872  1.0000
  S   S331      1.0  0.41095  0.29273  0.96262  1.0000
  H   H2368     1.0  0.33739  0.32911  0.93381  1.0000
  C   C1366     1.0  0.44154  0.40662  0.60107  1.0000
  C   C1367     1.0  0.45035  0.37584  0.89265  1.0000
  H   H2369     1.0  0.50571  0.34677  0.58368  1.0000
  H   H2370     1.0  0.47020  0.36193  0.85304  1.0000
  H   H2371     1.0  0.52591  0.49508  0.63168  1.0000
  H   H2372     1.0  0.42439  0.45369  0.87814  1.0000
  C   C1368     1.0  0.43195  0.44908  0.54082  1.0000
  S   S332      1.0  0.47357  0.44237  0.97421  1.0000
  H   H2373     1.0  0.41169  0.37050  0.89776  1.0000
  H   H2374     1.0  0.39820  0.36843  0.58915  1.0000
  H   H2375     1.0  0.44617  0.45121  0.53038  1.0000
  H   H2376     1.0  0.43434  0.35062  0.85995  1.0000
  C   C1369     1.0  0.42191  0.43525  0.78430  1.0000
  H   H2377     1.0  0.50000  0.29207  0.62694  1.0000
  H   H2378     1.0  0.45304  0.32286  0.83753  1.0000
  N   N74       1.0  0.55264  0.48897  0.82469  1.0000
  H   H2379     1.0  0.41822  0.39693  0.49692  1.0000
  H   H2380     1.0  0.37316  0.25819  0.82625  1.0000
  H   H2381     1.0  0.44125  0.37909  0.87675  1.0000
  N   N75       1.0  0.34641  0.30433  0.97416  1.0000
  C   C1370     1.0  0.55950  0.47411  0.81206  1.0000
  H   H2382     1.0  0.37964  0.27927  0.84263  1.0000
  C   C1371     1.0  0.42103  0.42592  0.75709  1.0000
  H   H2383     1.0  0.43575  0.38531  0.92663  1.0000
  H   H2384     1.0  0.40279  0.26179  0.85242  1.0000
  Fe  Fe168     1.0  0.46235  0.46682  0.97394  1.0000
  C   C1372     1.0  0.33512  0.31193  0.72642  1.0000
  C   C1373     1.0  0.42532  0.35011  0.91431  1.0000
  H   H2385     1.0  0.36087  0.33169  0.96042  1.0000
  C   C1374     1.0  0.54607  0.45472  0.81625  1.0000
  H   H2386     1.0  0.40623  0.46444  0.86856  1.0000
  H   H2387     1.0  0.37836  0.35252  0.90574  1.0000
  H   H2388     1.0  0.40152  0.40076  0.79577  1.0000
  C   C1375     1.0  0.55318  0.44140  0.79950  1.0000
  H   H2389     1.0  0.47072  0.31407  0.94726  1.0000
  H   H2390     1.0  0.47083  0.37339  0.53330  1.0000
  H   H2391     1.0  0.53065  0.47422  0.85364  1.0000
  Fe  Fe169     1.0  0.41202  0.27203  0.54538  1.0000
  H   H2392     1.0  0.34124  0.33673  0.61467  1.0000
  C   C1376     1.0  0.38963  0.39963  0.50030  1.0000
  C   C1377     1.0  0.41829  0.45939  0.86091  1.0000
  S   S333      1.0  0.51666  0.46969  0.97176  1.0000
  H   H2393     1.0  0.47272  0.34199  0.87079  1.0000
  H   H2394     1.0  0.39211  0.41616  0.81346  1.0000
  H   H2395     1.0  0.34284  0.26729  0.96276  1.0000
  H   H2396     1.0  0.53138  0.45418  0.81053  1.0000
  H   H2397     1.0  0.54533  0.44981  0.83750  1.0000
  H   H2398     1.0  0.46003  0.27406  0.90884  1.0000
  H   H2399     1.0  0.42055  0.43240  0.71453  1.0000
  H   H2400     1.0  0.35393  0.26902  0.56226  1.0000
  H   H2401     1.0  0.36395  0.39612  0.95615  1.0000
  C   C1378     1.0  0.44960  0.41027  0.82901  1.0000
  C   C1379     1.0  0.38089  0.38538  0.84221  1.0000
  H   H2402     1.0  0.47380  0.33880  0.82219  1.0000
  H   H2403     1.0  0.46623  0.47322  0.60204  1.0000
  H   H2404     1.0  0.55378  0.44536  0.77783  1.0000
  H   H2405     1.0  0.56763  0.44081  0.80547  1.0000
  H   H2406     1.0  0.54320  0.42774  0.80265  1.0000
  N   N76       1.0  0.36572  0.33313  0.74518  1.0000
  C   C1380     1.0  0.36330  0.34888  0.72808  1.0000
  H   H2407     1.0  0.40641  0.45207  0.82319  1.0000
  C   C1381     1.0  0.37303  0.34025  0.77176  1.0000
  C   C1382     1.0  0.37969  0.32395  0.73269  1.0000
  C   C1383     1.0  0.38092  0.32378  0.70162  1.0000
  C   C1384     1.0  0.38115  0.36534  0.72505  1.0000
  C   C1385     1.0  0.37466  0.32593  0.79359  1.0000
  H   H2408     1.0  0.46432  0.39542  0.56496  1.0000
  C   C1386     1.0  0.40790  0.39785  0.58482  1.0000
  C   C1387     1.0  0.39315  0.31157  0.69230  1.0000
  C   C1388     1.0  0.37987  0.37789  0.70123  1.0000
  C   C1389     1.0  0.38478  0.33482  0.81793  1.0000
  H   H2409     1.0  0.35136  0.35386  0.73652  1.0000
  H   H2410     1.0  0.35887  0.34479  0.70773  1.0000
  C   C1390     1.0  0.53064  0.49628  0.57506  1.0000
  H   H2411     1.0  0.45562  0.41703  0.92305  1.0000
  H   H2412     1.0  0.36374  0.34829  0.78042  1.0000
  H   H2413     1.0  0.38762  0.34962  0.76892  1.0000
  H   H2414     1.0  0.39451  0.33043  0.73853  1.0000
  H   H2415     1.0  0.37668  0.30976  0.74077  1.0000
  H   H2416     1.0  0.38765  0.33753  0.69290  1.0000
  H   H2417     1.0  0.36675  0.31913  0.69291  1.0000
  H   H2418     1.0  0.38226  0.37327  0.74335  1.0000
  H   H2419     1.0  0.39450  0.36104  0.72244  1.0000
  H   H2420     1.0  0.38285  0.31678  0.78569  1.0000
  C   C1391     1.0  0.35769  0.29987  0.53822  1.0000
  H   H2421     1.0  0.40907  0.44051  0.78554  1.0000
  H   H2422     1.0  0.38797  0.32331  0.97618  1.0000
  H   H2423     1.0  0.50400  0.50028  0.79063  1.0000
  H   H2424     1.0  0.42590  0.41393  0.53811  1.0000
  H   H2425     1.0  0.42043  0.40694  0.63393  1.0000
  H   H2426     1.0  0.40763  0.31575  0.70057  1.0000
  H   H2427     1.0  0.38623  0.29733  0.69882  1.0000
  H   H2428     1.0  0.39476  0.31248  0.67010  1.0000
  H   H2429     1.0  0.39244  0.38985  0.70035  1.0000
  H   H2430     1.0  0.37973  0.37086  0.68220  1.0000
  H   H2431     1.0  0.36667  0.38256  0.70329  1.0000
  H   H2432     1.0  0.38582  0.32426  0.83307  1.0000
  H   H2433     1.0  0.39949  0.34303  0.81210  1.0000
  H   H2434     1.0  0.37657  0.34353  0.82715  1.0000
  N   N77       1.0  0.48151  0.35218  0.65956  1.0000
  C   C1392     1.0  0.46011  0.34937  0.65962  1.0000
  C   C1393     1.0  0.48805  0.34623  0.63328  1.0000
  C   C1394     1.0  0.48553  0.33992  0.68164  1.0000
  C   C1395     1.0  0.49236  0.37141  0.66442  1.0000
  C   C1396     1.0  0.48346  0.38656  0.65414  1.0000
  C   C1397     1.0  0.45058  0.35204  0.68682  1.0000
  C   C1398     1.0  0.50661  0.33905  0.68329  1.0000
  C   C1399     1.0  0.48590  0.35745  0.60781  1.0000
  C   C1400     1.0  0.49124  0.34903  0.58251  1.0000
  C   C1401     1.0  0.49804  0.40497  0.65326  1.0000
  C   C1402     1.0  0.43114  0.35579  0.68324  1.0000
  C   C1403     1.0  0.51009  0.33066  0.71019  1.0000
  H   H2435     1.0  0.45298  0.33540  0.65382  1.0000
  H   H2436     1.0  0.45606  0.35816  0.64415  1.0000
  H   H2437     1.0  0.50351  0.34677  0.63327  1.0000
  H   H2438     1.0  0.48041  0.33186  0.63047  1.0000
  H   H2439     1.0  0.47658  0.32587  0.67980  1.0000
  H   H2440     1.0  0.48136  0.34407  0.70151  1.0000
  H   H2441     1.0  0.49422  0.37344  0.68624  1.0000
  H   H2442     1.0  0.50722  0.37428  0.65566  1.0000
  H   H2443     1.0  0.47137  0.38725  0.66781  1.0000
  H   H2444     1.0  0.47793  0.38442  0.63384  1.0000
  H   H2445     1.0  0.44833  0.33962  0.69995  1.0000
  H   H2446     1.0  0.45967  0.36335  0.69743  1.0000
  H   H2447     1.0  0.51675  0.35265  0.68082  1.0000
  H   H2448     1.0  0.51001  0.33051  0.66743  1.0000
  H   H2449     1.0  0.47104  0.35842  0.60590  1.0000
  H   H2450     1.0  0.49574  0.37119  0.60817  1.0000
  H   H2451     1.0  0.37556  0.36634  0.62768  1.0000
  H   H2452     1.0  0.48064  0.33598  0.57960  1.0000
  H   H2453     1.0  0.49127  0.35812  0.56476  1.0000
  H   H2454     1.0  0.50429  0.40788  0.67310  1.0000
  H   H2455     1.0  0.50971  0.40556  0.63807  1.0000
  H   H2456     1.0  0.49086  0.41555  0.64780  1.0000
  H   H2457     1.0  0.42183  0.34515  0.67161  1.0000
  H   H2458     1.0  0.42412  0.35597  0.70324  1.0000
  H   H2459     1.0  0.43293  0.36910  0.67268  1.0000
  H   H2460     1.0  0.50037  0.31692  0.71348  1.0000
  H   H2461     1.0  0.52507  0.32964  0.71041  1.0000
  H   H2462     1.0  0.50775  0.33907  0.72687  1.0000
  H   H2463     1.0  0.44035  0.44239  0.57958  1.0000
  C   C1404     1.0  0.39483  0.44614  0.95871  1.0000
  H   H2464     1.0  0.44967  0.40627  0.65630  1.0000
  H   H2465     1.0  0.41003  0.37857  0.61783  1.0000
  H   H2466     1.0  0.47189  0.39732  0.83875  1.0000
  C   C1405     1.0  0.43376  0.41803  0.55665  1.0000
  C   C1406     1.0  0.44363  0.34589  0.87424  1.0000
  C   C1407     1.0  0.43400  0.41567  0.62485  1.0000
  H   H2467     1.0  0.43659  0.33128  0.87812  1.0000
  H   H2468     1.0  0.44334  0.32595  0.93783  1.0000
  H   H2469     1.0  0.47417  0.40710  0.80522  1.0000
  N   N78       1.0  0.42300  0.42371  0.80906  1.0000
  H   H2470     1.0  0.43136  0.42867  0.61852  1.0000
  H   H2471     1.0  0.36695  0.43383  0.94363  1.0000
  C   C1408     1.0  0.45314  0.38904  0.55105  1.0000
  H   H2472     1.0  0.42955  0.42879  0.85078  1.0000
  H   H2473     1.0  0.39850  0.43496  0.84957  1.0000
  H   H2474     1.0  0.40841  0.44480  0.73553  1.0000
  H   H2475     1.0  0.42610  0.35518  0.93493  1.0000
  C   C1409     1.0  0.43936  0.41524  0.80425  1.0000
  H   H2476     1.0  0.39501  0.41382  0.50607  1.0000
  C   C1410     1.0  0.43274  0.38635  0.56386  1.0000
  C   C1411     1.0  0.45483  0.40816  0.90586  1.0000
  H   H2477     1.0  0.33356  0.32255  0.71185  1.0000
  H   H2478     1.0  0.39935  0.39659  0.56649  1.0000
  H   H2479     1.0  0.40671  0.34992  0.88012  1.0000
  H   H2480     1.0  0.45108  0.42467  0.79173  1.0000
  H   H2481     1.0  0.37948  0.37610  0.86013  1.0000
  C   C1412     1.0  0.45670  0.33142  0.92542  1.0000
  C   C1413     1.0  0.40007  0.38011  0.60209  1.0000
  H   H2482     1.0  0.42065  0.44388  0.52642  1.0000
  C   C1414     1.0  0.45982  0.33742  0.83293  1.0000
  H   H2483     1.0  0.42237  0.38184  0.54787  1.0000
  H   H2484     1.0  0.34780  0.30802  0.76310  1.0000
  H   H2485     1.0  0.43031  0.37463  0.57850  1.0000
  H   H2486     1.0  0.57360  0.47361  0.81986  1.0000
  H   H2487     1.0  0.48696  0.33331  0.93003  1.0000
  H   H2488     1.0  0.56415  0.50179  0.62344  1.0000
  H   H2489     1.0  0.44926  0.42174  0.55057  1.0000
  H   H2490     1.0  0.45597  0.41537  0.59457  1.0000
  S   S334      1.0  0.48236  0.48211  0.94062  1.0000
  H   H2491     1.0  0.36854  0.30019  0.55349  1.0000
  H   H2492     1.0  0.38162  0.39048  0.62905  1.0000
  H   H2493     1.0  0.39101  0.35458  0.93641  1.0000
  H   H2494     1.0  0.45502  0.39771  0.53238  1.0000
  H   H2495     1.0  0.43946  0.40228  0.84456  1.0000
  H   H2496     1.0  0.44318  0.42675  0.66307  1.0000
  H   H2497     1.0  0.35387  0.31752  0.50511  1.0000
  H   H2498     1.0  0.54054  0.47808  0.90804  1.0000
  H   H2499     1.0  0.55489  0.47631  0.52880  1.0000
  C   C1415     1.0  0.40163  0.39676  0.83819  1.0000
  H   H2500     1.0  0.35839  0.28904  0.52468  1.0000
  C   C1416     1.0  0.45933  0.35168  0.91789  1.0000
  C   C1417     1.0  0.46376  0.39956  0.82111  1.0000
  H   H2501     1.0  0.42950  0.47093  0.85153  1.0000
  H   H2502     1.0  0.43446  0.44735  0.78272  1.0000
  H   H2503     1.0  0.40418  0.40885  0.59562  1.0000
  H   H2504     1.0  0.36025  0.31778  0.80091  1.0000
  C   C1418     1.0  0.34835  0.27727  0.94590  1.0000
  H   H2505     1.0  0.34358  0.38323  0.49405  1.0000
  H   H2506     1.0  0.37421  0.26818  0.94055  1.0000
  N   N79       1.0  0.44466  0.35588  0.89980  1.0000
  C   C1419     1.0  0.44999  0.38846  0.91608  1.0000
  C   C1420     1.0  0.36218  0.27009  0.92859  1.0000
  H   H2507     1.0  0.34230  0.30273  0.71644  1.0000
  C   C1421     1.0  0.53588  0.48984  0.90016  1.0000
  H   H2508     1.0  0.45612  0.32332  0.90746  1.0000
  Fe  Fe170     1.0  0.50332  0.49273  0.97242  1.0000
  H   H2509     1.0  0.45062  0.34291  0.81947  1.0000
  C   C1422     1.0  0.40883  0.35564  0.90018  1.0000
  H   H2510     1.0  0.46893  0.41206  0.89474  1.0000
  H   H2511     1.0  0.43432  0.45059  0.73318  1.0000
  H   H2512     1.0  0.36496  0.30516  0.93907  1.0000
  C   C1423     1.0  0.42979  0.43589  0.56501  1.0000
  H   H2513     1.0  0.49807  0.49902  0.55740  1.0000
  C   C1424     1.0  0.38062  0.37917  0.61554  1.0000
  H   H2514     1.0  0.33622  0.27811  0.93342  1.0000
  H   H2515     1.0  0.52025  0.48555  0.89705  1.0000
  H   H2516     1.0  0.35891  0.37564  0.97705  1.0000
  C   C1425     1.0  0.42106  0.43929  0.73372  1.0000
  H   H2517     1.0  0.55652  0.47582  0.56474  1.0000
  H   H2518     1.0  0.33712  0.32629  0.76306  1.0000
  H   H2519     1.0  0.38498  0.39085  0.51872  1.0000
  C   C1426     1.0  0.54168  0.49485  0.54856  1.0000
  C   C1427     1.0  0.54712  0.47702  0.54806  1.0000
  C   C1428     1.0  0.37045  0.38652  0.96692  1.0000
  H   H2520     1.0  0.58259  0.50342  0.78428  1.0000
  H   H2521     1.0  0.58836  0.50015  0.62349  1.0000
  H   H2522     1.0  0.37096  0.29393  0.96754  1.0000
  H   H2523     1.0  0.38936  0.26458  0.88197  1.0000
  H   H2524     1.0  0.53856  0.50021  0.91546  1.0000
  S   S335      1.0  0.43009  0.46262  0.97751  1.0000
  C   C1429     1.0  0.38851  0.25762  0.86293  1.0000
  H   H2525     1.0  0.33233  0.27315  0.50760  1.0000
  C   C1430     1.0  0.33866  0.37486  0.51190  1.0000
  H   H2526     1.0  0.55055  0.50172  0.96668  1.0000
  H   H2527     1.0  0.43128  0.25977  0.71391  1.0000
  H   H2528     1.0  0.34088  0.39743  0.53704  1.0000
  C   C1431     1.0  0.33723  0.38290  0.53638  1.0000
  H   H2529     1.0  0.36012  0.26120  0.85633  1.0000
  H   H2530     1.0  0.54060  0.49539  0.59109  1.0000
  C   C1432     1.0  0.35771  0.32327  0.97931  1.0000
  C   C1433     1.0  0.53662  0.49219  0.80830  1.0000
  H   H2531     1.0  0.35967  0.25570  0.61905  1.0000
  C   C1434     1.0  0.33414  0.35610  0.51077  1.0000
  H   H2532     1.0  0.54121  0.49449  0.78669  1.0000
  H   H2533     1.0  0.57620  0.50324  0.65445  1.0000
  H   H2534     1.0  0.51890  0.50329  0.83534  1.0000
  H   H2535     1.0  0.58127  0.50229  0.83574  1.0000
  H   H2536     1.0  0.56199  0.50353  0.87869  1.0000
  H   H2537     1.0  0.43308  0.36813  0.48571  1.0000
  Fe  Fe171     1.0  0.60898  0.60274  0.22352  1.0000
  S   S336      1.0  0.63603  0.59395  0.22455  1.0000
  S   S337      1.0  0.57935  0.58254  0.22638  1.0000
  Fe  Fe172     1.0  0.63173  0.64322  0.21647  1.0000
  H   H2538     1.0  0.65296  0.69089  0.10216  1.0000
  S   S338      1.0  0.63016  0.67244  0.21222  1.0000
  Fe  Fe173     1.0  0.64619  0.61429  0.19015  1.0000
  H   H2539     1.0  0.63290  0.67664  0.47976  1.0000
  Fe  Fe174     1.0  0.64662  0.61717  0.25122  1.0000
  H   H2540     1.0  0.60897  0.57611  0.42063  1.0000
  S   S339      1.0  0.61862  0.62203  0.18763  1.0000
  S   S340      1.0  0.61890  0.62492  0.25244  1.0000
  H   H2541     1.0  0.58401  0.56560  0.06787  1.0000
  H   H2542     1.0  0.55906  0.51840  0.12627  1.0000
  H   H2543     1.0  0.62156  0.54129  0.34194  1.0000
  Fe  Fe175     1.0  0.63938  0.61004  0.00258  1.0000
  S   S341      1.0  0.63328  0.62513  0.03844  1.0000
  Fe  Fe176     1.0  0.64225  0.61368  0.44105  1.0000
  S   S342      1.0  0.63348  0.62726  0.40454  1.0000
  H   H2544     1.0  0.65121  0.73064  0.06390  1.0000
  S   S343      1.0  0.65699  0.59183  0.43760  1.0000
  N   N80       1.0  0.65398  0.72330  0.29144  1.0000
  C   C1435     1.0  0.56885  0.52772  0.07297  1.0000
  H   H2545     1.0  0.51723  0.51682  0.25396  1.0000
  H   H2546     1.0  0.61279  0.58362  0.37124  1.0000
  H   H2547     1.0  0.65657  0.73620  0.46178  1.0000
  S   S344      1.0  0.66089  0.60721  0.15313  1.0000
  H   H2548     1.0  0.65660  0.71428  0.33248  1.0000
  S   S345      1.0  0.65997  0.63658  0.21680  1.0000
  H   H2549     1.0  0.66237  0.55589  0.41881  1.0000
  C   C1436     1.0  0.57720  0.54007  0.04783  1.0000
  H   H2550     1.0  0.50074  0.51232  0.29995  1.0000
  C   C1437     1.0  0.59368  0.54037  0.47128  1.0000
  C   C1438     1.0  0.63322  0.74742  0.23417  1.0000
  H   H2551     1.0  0.65229  0.73575  0.32906  1.0000
  H   H2552     1.0  0.60774  0.70391  0.03261  1.0000
  H   H2553     1.0  0.49859  0.50987  0.34333  1.0000
  C   C1439     1.0  0.64962  0.69086  0.20107  1.0000
  C   C1440     1.0  0.64612  0.70762  0.19536  1.0000
  C   C1441     1.0  0.63137  0.56507  0.29965  1.0000
  C   C1442     1.0  0.54514  0.54255  0.29435  1.0000
  C   C1443     1.0  0.58449  0.52182  0.47129  1.0000
  C   C1444     1.0  0.66350  0.61286  0.34294  1.0000
  H   H2554     1.0  0.63169  0.70899  0.19770  1.0000
  H   H2555     1.0  0.58167  0.52692  0.35759  1.0000
  H   H2556     1.0  0.48480  0.53518  0.26164  1.0000
  C   C1445     1.0  0.64868  0.69984  0.11677  1.0000
  C   C1446     1.0  0.65463  0.61769  0.32034  1.0000
  C   C1447     1.0  0.63934  0.62537  0.32388  1.0000
  C   C1448     1.0  0.63301  0.62821  0.34980  1.0000
  C   C1449     1.0  0.64176  0.62324  0.37239  1.0000
  H   H2557     1.0  0.62044  0.73592  0.23204  1.0000
  H   H2558     1.0  0.58912  0.56675  0.47343  1.0000
  H   H2559     1.0  0.63252  0.62930  0.30666  1.0000
  H   H2560     1.0  0.62121  0.63422  0.35233  1.0000
  C   C1450     1.0  0.64502  0.70969  0.44617  1.0000
  H   H2561     1.0  0.62035  0.63820  0.45961  1.0000
  C   C1451     1.0  0.65191  0.61145  0.12179  1.0000
  H   H2562     1.0  0.59070  0.56809  0.36557  1.0000
  C   C1452     1.0  0.64942  0.60569  0.07420  1.0000
  C   C1453     1.0  0.64018  0.61932  0.07044  1.0000
  C   C1454     1.0  0.63671  0.62892  0.09250  1.0000
  C   C1455     1.0  0.64254  0.62501  0.11810  1.0000
  H   H2563     1.0  0.56198  0.50914  0.02774  1.0000
  H   H2564     1.0  0.63156  0.70272  0.36817  1.0000
  H   H2565     1.0  0.62943  0.63936  0.08972  1.0000
  H   H2566     1.0  0.64001  0.63263  0.13489  1.0000
  H   H2567     1.0  0.61731  0.56087  0.29027  1.0000
  C   C1456     1.0  0.58498  0.53098  0.22757  1.0000
  C   C1457     1.0  0.58935  0.54996  0.22766  1.0000
  C   C1458     1.0  0.57500  0.55879  0.22384  1.0000
  C   C1459     1.0  0.55635  0.54837  0.21937  1.0000
  C   C1460     1.0  0.55205  0.52940  0.21890  1.0000
  H   H2568     1.0  0.64007  0.57565  0.38192  1.0000
  H   H2569     1.0  0.60377  0.55773  0.23109  1.0000
  H   H2570     1.0  0.54518  0.55504  0.21612  1.0000
  C   C1461     1.0  0.56629  0.52055  0.22339  1.0000
  C   C1462     1.0  0.61605  0.55326  0.34531  1.0000
  H   H2571     1.0  0.64254  0.74666  0.28904  1.0000
  H   H2572     1.0  0.50195  0.51518  0.03212  1.0000
  N   N81       1.0  0.65044  0.71833  0.10374  1.0000
  H   H2573     1.0  0.64347  0.57408  0.33684  1.0000
  H   H2574     1.0  0.64027  0.53553  0.38992  1.0000
  C   C1463     1.0  0.62524  0.70868  0.06743  1.0000
  H   H2575     1.0  0.58781  0.57372  0.31004  1.0000
  H   H2576     1.0  0.58521  0.53325  0.03434  1.0000
  C   C1464     1.0  0.62892  0.68954  0.12989  1.0000
  C   C1465     1.0  0.62851  0.67017  0.13830  1.0000
  H   H2577     1.0  0.66265  0.59138  0.10239  1.0000
  C   C1466     1.0  0.58241  0.55248  0.47339  1.0000
  H   H2578     1.0  0.53593  0.51960  0.11582  1.0000
  C   C1467     1.0  0.51147  0.52719  0.26316  1.0000
  C   C1468     1.0  0.62699  0.71335  0.32860  1.0000
  H   H2579     1.0  0.60180  0.53872  0.41025  1.0000
  H   H2580     1.0  0.59301  0.51228  0.46967  1.0000
  H   H2581     1.0  0.56917  0.54188  0.32030  1.0000
  C   C1469     1.0  0.60331  0.57026  0.37837  1.0000
  H   H2582     1.0  0.53654  0.52135  0.03764  1.0000
  C   C1470     1.0  0.57089  0.51371  0.39538  1.0000
  H   H2583     1.0  0.62209  0.69964  0.32088  1.0000
  H   H2584     1.0  0.62097  0.69412  0.07333  1.0000
  H   H2585     1.0  0.51196  0.50462  0.08862  1.0000
  C   C1471     1.0  0.61777  0.65012  0.46935  1.0000
  N   N82       1.0  0.55217  0.51163  0.06848  1.0000
  H   H2586     1.0  0.60949  0.52727  0.38412  1.0000
  H   H2587     1.0  0.62597  0.69623  0.14822  1.0000
  H   H2588     1.0  0.61706  0.68905  0.11636  1.0000
  S   S346      1.0  0.52768  0.52060  0.47861  1.0000
  H   H2589     1.0  0.64004  0.66988  0.15228  1.0000
  S   S347      1.0  0.65310  0.58709  0.00419  1.0000
  H   H2590     1.0  0.62259  0.58128  0.32887  1.0000
  H   H2591     1.0  0.61796  0.72176  0.32056  1.0000
  H   H2592     1.0  0.65216  0.59817  0.05748  1.0000
  H   H2593     1.0  0.55631  0.55793  0.32921  1.0000
  H   H2594     1.0  0.54156  0.52842  0.34619  1.0000
  H   H2595     1.0  0.63214  0.70331  0.02624  1.0000
  H   H2596     1.0  0.57305  0.54065  0.38073  1.0000
  H   H2597     1.0  0.63864  0.55411  0.29833  1.0000
  S   S348      1.0  0.62038  0.59856  0.47218  1.0000
  C   C1472     1.0  0.64237  0.73442  0.27770  1.0000
  C   C1473     1.0  0.51142  0.52531  0.29416  1.0000
  C   C1474     1.0  0.64841  0.72201  0.32094  1.0000
  H   H2598     1.0  0.63375  0.67452  0.42851  1.0000
  H   H2599     1.0  0.65737  0.66605  0.38864  1.0000
  N   N83       1.0  0.66340  0.68552  0.43855  1.0000
  H   H2600     1.0  0.60326  0.55467  0.06648  1.0000
  C   C1475     1.0  0.56230  0.54617  0.47526  1.0000
  H   H2601     1.0  0.56680  0.51575  0.30277  1.0000
  H   H2602     1.0  0.63357  0.69923  0.27867  1.0000
  C   C1476     1.0  0.58641  0.58751  0.40860  1.0000
  C   C1477     1.0  0.62899  0.56969  0.32882  1.0000
  H   H2603     1.0  0.65465  0.70881  0.06441  1.0000
  H   H2604     1.0  0.56464  0.53654  0.08782  1.0000
  C   C1478     1.0  0.64483  0.67088  0.44078  1.0000
  C   C1479     1.0  0.62285  0.71027  0.03724  1.0000
  C   C1480     1.0  0.59131  0.55758  0.05537  1.0000
  Fe  Fe177     1.0  0.63611  0.57728  0.47063  1.0000
  H   H2605     1.0  0.60670  0.65472  0.45842  1.0000
  C   C1481     1.0  0.49974  0.51364  0.05425  1.0000
  H   H2606     1.0  0.58224  0.58915  0.42972  1.0000
  H   H2607     1.0  0.48536  0.50437  0.05912  1.0000
  H   H2608     1.0  0.66105  0.69879  0.47551  1.0000
  H   H2609     1.0  0.62707  0.72665  0.27747  1.0000
  H   H2610     1.0  0.53776  0.52165  0.21482  1.0000
  C   C1482     1.0  0.56184  0.55164  0.31215  1.0000
  H   H2611     1.0  0.65034  0.54973  0.36083  1.0000
  H   H2612     1.0  0.62816  0.72521  0.36769  1.0000
  C   C1483     1.0  0.56432  0.51547  0.47345  1.0000
  H   H2613     1.0  0.58384  0.56091  0.28039  1.0000
  C   C1484     1.0  0.57673  0.56662  0.29650  1.0000
  C   C1485     1.0  0.53579  0.50895  0.29900  1.0000
  H   H2614     1.0  0.61532  0.71546  0.07721  1.0000
  H   H2615     1.0  0.55142  0.53952  0.27503  1.0000
  H   H2616     1.0  0.62257  0.72008  0.11878  1.0000
  H   H2617     1.0  0.52024  0.54062  0.25547  1.0000
  H   H2618     1.0  0.56567  0.54364  0.03661  1.0000
  C   C1486     1.0  0.59661  0.57255  0.40749  1.0000
  C   C1487     1.0  0.49123  0.52481  0.25344  1.0000
  N   N84       1.0  0.53047  0.52594  0.30614  1.0000
  H   H2619     1.0  0.59743  0.56579  0.03688  1.0000
  H   H2620     1.0  0.64026  0.57709  0.28804  1.0000
  C   C1488     1.0  0.63782  0.72780  0.11869  1.0000
  H   H2621     1.0  0.49174  0.52624  0.23122  1.0000
  H   H2622     1.0  0.53569  0.53143  0.06868  1.0000
  H   H2623     1.0  0.59617  0.52433  0.23076  1.0000
  H   H2624     1.0  0.50548  0.53614  0.30212  1.0000
  H   H2625     1.0  0.63109  0.69936  0.44813  1.0000
  S   S349      1.0  0.66348  0.61449  0.28812  1.0000
  H   H2626     1.0  0.61458  0.66339  0.14875  1.0000
  C   C1489     1.0  0.60222  0.53799  0.38802  1.0000
  H   H2627     1.0  0.50777  0.52686  0.38446  1.0000
  C   C1490     1.0  0.63883  0.74729  0.10838  1.0000
  H   H2628     1.0  0.58086  0.52323  0.08178  1.0000
  C   C1491     1.0  0.53539  0.51833  0.05971  1.0000
  H   H2629     1.0  0.58638  0.56005  0.41593  1.0000
  C   C1492     1.0  0.54499  0.51031  0.11972  1.0000
  H   H2630     1.0  0.65882  0.70077  0.13335  1.0000
  H   H2631     1.0  0.65738  0.66243  0.28944  1.0000
  C   C1493     1.0  0.65154  0.67267  0.27901  1.0000
  C   C1494     1.0  0.65536  0.60185  0.09973  1.0000
  H   H2632     1.0  0.57329  0.58410  0.39687  1.0000
  C   C1495     1.0  0.58147  0.53065  0.37878  1.0000
  N   N85       1.0  0.61351  0.55572  0.37485  1.0000
  C   C1496     1.0  0.55310  0.52766  0.47533  1.0000
  C   C1497     1.0  0.52795  0.52721  0.33604  1.0000
  C   C1498     1.0  0.62357  0.71172  0.35902  1.0000
  C   C1499     1.0  0.66195  0.70181  0.45350  1.0000
  C   C1500     1.0  0.64626  0.71709  0.07438  1.0000
  H   H2633     1.0  0.60199  0.55018  0.33580  1.0000
  H   H2634     1.0  0.63569  0.66763  0.27962  1.0000
  H   H2635     1.0  0.63026  0.66250  0.12051  1.0000
  H   H2636     1.0  0.63030  0.56119  0.41000  1.0000
  C   C1501     1.0  0.64933  0.70503  0.27925  1.0000
  H   H2637     1.0  0.56996  0.57665  0.28738  1.0000
  H   H2638     1.0  0.60896  0.74621  0.11781  1.0000
  C   C1502     1.0  0.66110  0.72271  0.18683  1.0000
  H   H2639     1.0  0.53820  0.55348  0.28932  1.0000
  H   H2640     1.0  0.64143  0.72845  0.14017  1.0000
  H   H2641     1.0  0.60808  0.70593  0.36405  1.0000
  H   H2642     1.0  0.52374  0.53978  0.34031  1.0000
  H   H2643     1.0  0.65625  0.69588  0.40064  1.0000
  C   C1503     1.0  0.63254  0.56140  0.38786  1.0000
  H   H2644     1.0  0.59599  0.60051  0.40055  1.0000
  H   H2645     1.0  0.62653  0.72466  0.03010  1.0000
  H   H2646     1.0  0.64686  0.65845  0.43200  1.0000
  H   H2647     1.0  0.52572  0.51481  0.39005  1.0000
  C   C1504     1.0  0.64357  0.72476  0.46444  1.0000
  H   H2648     1.0  0.53841  0.50873  0.27699  1.0000
  H   H2649     1.0  0.48204  0.51117  0.25959  1.0000
  H   H2650     1.0  0.65697  0.67418  0.25781  1.0000
  H   H2651     1.0  0.50016  0.52698  0.06231  1.0000
  C   C1505     1.0  0.64882  0.74115  0.24839  1.0000
  H   H2652     1.0  0.65439  0.70628  0.25788  1.0000
  C   C1506     1.0  0.64655  0.54966  0.38249  1.0000
  H   H2653     1.0  0.64639  0.66020  0.48191  1.0000
  C   C1507     1.0  0.65707  0.61557  0.36888  1.0000
  C   C1508     1.0  0.51188  0.51422  0.38079  1.0000
  H   H2654     1.0  0.64694  0.71544  0.42529  1.0000
  C   C1509     1.0  0.51310  0.51128  0.35081  1.0000
  H   H2655     1.0  0.55379  0.55573  0.47680  1.0000
  H   H2656     1.0  0.65225  0.73048  0.23678  1.0000
  C   C1510     1.0  0.51502  0.50592  0.06666  1.0000
  H   H2657     1.0  0.63672  0.74806  0.08656  1.0000
  H   H2658     1.0  0.65306  0.68803  0.31396  1.0000
  H   H2659     1.0  0.62503  0.75405  0.14449  1.0000
  C   C1511     1.0  0.63628  0.66523  0.46962  1.0000
  S   S350      1.0  0.66167  0.62848  0.47159  1.0000
  H   H2660     1.0  0.66182  0.75267  0.24781  1.0000
  H   H2661     1.0  0.63106  0.72978  0.45925  1.0000
  H   H2662     1.0  0.65806  0.73546  0.18286  1.0000
  C   C1512     1.0  0.65785  0.69064  0.29262  1.0000
  C   C1513     1.0  0.55389  0.50580  0.31160  1.0000
  S   S351      1.0  0.61914  0.54784  0.46802  1.0000
  H   H2663     1.0  0.56883  0.51702  0.41649  1.0000
  H   H2664     1.0  0.55335  0.50666  0.33364  1.0000
  H   H2665     1.0  0.53492  0.50484  0.16133  1.0000
  H   H2666     1.0  0.55660  0.50795  0.38728  1.0000
  H   H2667     1.0  0.63863  0.75317  0.21388  1.0000
  H   H2668     1.0  0.66413  0.61194  0.38607  1.0000
  Fe  Fe178     1.0  0.60958  0.59913  0.72544  1.0000
  S   S352      1.0  0.63684  0.59067  0.72525  1.0000
  S   S353      1.0  0.58007  0.57890  0.72803  1.0000
  Fe  Fe179     1.0  0.63201  0.63978  0.71950  1.0000
  C   C1514     1.0  0.64115  0.68210  0.89357  1.0000
  S   S354      1.0  0.63087  0.66895  0.71461  1.0000
  Fe  Fe180     1.0  0.64653  0.61161  0.69147  1.0000
  H   H2669     1.0  0.61437  0.57814  0.65777  1.0000
  Fe  Fe181     1.0  0.64712  0.61345  0.75280  1.0000
  H   H2670     1.0  0.50405  0.53453  0.90032  1.0000
  S   S355      1.0  0.61877  0.61903  0.69026  1.0000
  S   S356      1.0  0.61929  0.62095  0.75485  1.0000
  C   C1515     1.0  0.60300  0.65650  0.64507  1.0000
  H   H2671     1.0  0.55334  0.58228  0.91191  1.0000
  H   H2672     1.0  0.60260  0.55857  0.59751  1.0000
  Fe  Fe182     1.0  0.64163  0.61072  0.50253  1.0000
  S   S357      1.0  0.63093  0.62148  0.53968  1.0000
  Fe  Fe183     1.0  0.63743  0.60982  0.94101  1.0000
  S   S358      1.0  0.62884  0.62287  0.90372  1.0000
  H   H2673     1.0  0.54006  0.51814  0.62671  1.0000
  H   H2674     1.0  0.64177  0.71988  0.48578  1.0000
  H   H2675     1.0  0.60095  0.57382  0.89885  1.0000
  H   H2676     1.0  0.58515  0.58174  0.86234  1.0000
  H   H2677     1.0  0.64841  0.70856  0.83096  1.0000
  C   C1516     1.0  0.64844  0.73054  0.80217  1.0000
  H   H2678     1.0  0.57630  0.54784  0.55266  1.0000
  H   H2679     1.0  0.61446  0.52632  0.63288  1.0000
  H   H2680     1.0  0.61555  0.66051  0.88727  1.0000
  C   C1517     1.0  0.52530  0.50932  0.62921  1.0000
  H   H2681     1.0  0.61441  0.68265  0.87566  1.0000
  H   H2682     1.0  0.59574  0.59407  0.92494  1.0000
  H   H2683     1.0  0.53927  0.52015  0.82029  1.0000
  H   H2684     1.0  0.60028  0.64239  0.63875  1.0000
  H   H2685     1.0  0.64680  0.65872  0.91267  1.0000
  H   H2686     1.0  0.56339  0.56389  0.56275  1.0000
  H   H2687     1.0  0.59126  0.54052  0.80914  1.0000
  H   H2688     1.0  0.53027  0.55537  0.92131  1.0000
  C   C1518     1.0  0.65098  0.68712  0.70507  1.0000
  C   C1519     1.0  0.64783  0.70361  0.69675  1.0000
  H   H2689     1.0  0.64196  0.66018  0.79234  1.0000
  H   H2690     1.0  0.56188  0.58062  0.81547  1.0000
  H   H2691     1.0  0.56597  0.51663  0.83472  1.0000
  N   N86       1.0  0.65574  0.67382  0.61531  1.0000
  H   H2692     1.0  0.63334  0.70487  0.69604  1.0000
  H   H2693     1.0  0.62056  0.63243  0.85037  1.0000
  H   H2694     1.0  0.58605  0.51153  0.96704  1.0000
  H   H2695     1.0  0.55508  0.53776  0.88672  1.0000
  C   C1520     1.0  0.65959  0.69379  0.61926  1.0000
  C   C1521     1.0  0.56681  0.57851  0.91592  1.0000
  S   S359      1.0  0.66358  0.61055  0.78985  1.0000
  C   C1522     1.0  0.63835  0.61902  0.87225  1.0000
  C   C1523     1.0  0.63165  0.62544  0.84890  1.0000
  C   C1524     1.0  0.63915  0.62278  0.82356  1.0000
  H   H2696     1.0  0.65937  0.65489  0.58610  1.0000
  C   C1525     1.0  0.58899  0.56136  0.90206  1.0000
  H   H2697     1.0  0.54096  0.50861  0.86636  1.0000
  S   S360      1.0  0.61293  0.54570  0.97427  1.0000
  H   H2698     1.0  0.65621  0.65034  0.64039  1.0000
  H   H2699     1.0  0.57881  0.56153  0.62592  1.0000
  H   H2700     1.0  0.66352  0.67109  0.65637  1.0000
  C   C1526     1.0  0.63867  0.61560  0.57096  1.0000
  C   C1527     1.0  0.62888  0.61837  0.59430  1.0000
  C   C1528     1.0  0.63567  0.61550  0.61962  1.0000
  C   C1529     1.0  0.65277  0.61013  0.87009  1.0000
  H   H2701     1.0  0.50815  0.52371  0.60783  1.0000
  H   H2702     1.0  0.61613  0.62306  0.59273  1.0000
  H   H2703     1.0  0.62822  0.61818  0.63724  1.0000
  C   C1530     1.0  0.56453  0.51678  0.72556  1.0000
  C   C1531     1.0  0.58383  0.52681  0.72530  1.0000
  C   C1532     1.0  0.58887  0.54579  0.72599  1.0000
  C   C1533     1.0  0.57463  0.55500  0.72684  1.0000
  C   C1534     1.0  0.55536  0.54497  0.72684  1.0000
  C   C1535     1.0  0.55032  0.52601  0.72617  1.0000
  H   H2704     1.0  0.59495  0.51982  0.72499  1.0000
  H   H2705     1.0  0.60373  0.55327  0.72631  1.0000
  H   H2706     1.0  0.54421  0.55193  0.72748  1.0000
  H   H2707     1.0  0.53543  0.51855  0.72634  1.0000
  H   H2708     1.0  0.63656  0.55067  0.54587  1.0000
  C   C1536     1.0  0.57812  0.50692  0.63262  1.0000
  H   H2709     1.0  0.66199  0.67872  0.94581  1.0000
  C   C1537     1.0  0.57672  0.55149  0.97921  1.0000
  S   S361      1.0  0.66027  0.63334  0.71894  1.0000
  C   C1538     1.0  0.53970  0.52984  0.57552  1.0000
  C   C1539     1.0  0.54556  0.53912  0.54727  1.0000
  C   C1540     1.0  0.49707  0.52662  0.55932  1.0000
  C   C1541     1.0  0.58526  0.52739  0.62787  1.0000
  C   C1542     1.0  0.65480  0.60901  0.57312  1.0000
  C   C1543     1.0  0.66139  0.60583  0.59852  1.0000
  H   H2710     1.0  0.62370  0.57517  0.60436  1.0000
  C   C1544     1.0  0.57047  0.57320  0.86806  1.0000
  C   C1545     1.0  0.62001  0.73272  0.75925  1.0000
  H   H2711     1.0  0.51711  0.52867  0.65472  1.0000
  S   S362      1.0  0.65092  0.58697  0.93897  1.0000
  H   H2712     1.0  0.62513  0.70139  0.78816  1.0000
  C   C1546     1.0  0.56875  0.56939  0.81772  1.0000
  C   C1547     1.0  0.50869  0.51248  0.55667  1.0000
  N   N87       1.0  0.64986  0.72308  0.77494  1.0000
  H   H2713     1.0  0.53640  0.54039  0.58804  1.0000
  H   H2714     1.0  0.55269  0.52711  0.58410  1.0000
  H   H2715     1.0  0.61022  0.53688  0.91617  1.0000
  H   H2716     1.0  0.54733  0.52955  0.53213  1.0000
  C   C1548     1.0  0.55772  0.51556  0.97034  1.0000
  H   H2717     1.0  0.50629  0.53993  0.56441  1.0000
  C   C1549     1.0  0.65427  0.66931  0.89735  1.0000
  C   C1550     1.0  0.63429  0.66587  0.61736  1.0000
  H   H2718     1.0  0.50154  0.50605  0.65852  1.0000
  H   H2719     1.0  0.56391  0.61355  0.92564  1.0000
  H   H2720     1.0  0.54840  0.55548  0.98275  1.0000
  H   H2721     1.0  0.66309  0.57328  0.68139  1.0000
  H   H2722     1.0  0.61250  0.55226  0.55190  1.0000
  H   H2723     1.0  0.66035  0.73096  0.68281  1.0000
  H   H2724     1.0  0.51532  0.51403  0.53615  1.0000
  H   H2725     1.0  0.56123  0.58267  0.86709  1.0000
  H   H2726     1.0  0.53201  0.56008  0.88569  1.0000
  H   H2727     1.0  0.56492  0.57236  0.93667  1.0000
  H   H2728     1.0  0.57046  0.54855  0.84628  1.0000
  C   C1551     1.0  0.65356  0.61385  0.82136  1.0000
  C   C1552     1.0  0.65430  0.67763  0.56365  1.0000
  C   C1553     1.0  0.56952  0.50544  0.82428  1.0000
  H   H2729     1.0  0.65727  0.67962  0.52036  1.0000
  H   H2730     1.0  0.59745  0.55821  0.67026  1.0000
  H   H2731     1.0  0.65734  0.69214  0.80001  1.0000
  H   H2732     1.0  0.62699  0.67341  0.60374  1.0000
  C   C1554     1.0  0.51860  0.53247  0.89818  1.0000
  C   C1555     1.0  0.57790  0.51346  0.79620  1.0000
  H   H2733     1.0  0.65082  0.69985  0.60579  1.0000
  C   C1556     1.0  0.62448  0.66534  0.64553  1.0000
  C   C1557     1.0  0.57639  0.57990  0.65603  1.0000
  C   C1558     1.0  0.56385  0.55990  0.84543  1.0000
  C   C1559     1.0  0.56441  0.55383  0.54781  1.0000
  S   S363      1.0  0.65656  0.58864  0.50290  1.0000
  H   H2734     1.0  0.62857  0.67092  0.85684  1.0000
  H   H2735     1.0  0.62298  0.53620  0.59006  1.0000
  C   C1560     1.0  0.59531  0.52956  0.79858  1.0000
  H   H2736     1.0  0.63059  0.65183  0.61067  1.0000
  H   H2737     1.0  0.58598  0.53039  0.60596  1.0000
  H   H2738     1.0  0.55590  0.54146  0.92107  1.0000
  H   H2739     1.0  0.56604  0.58537  0.64482  1.0000
  H   H2740     1.0  0.56776  0.56094  0.52782  1.0000
  C   C1561     1.0  0.51552  0.51234  0.79524  1.0000
  H   H2741     1.0  0.59608  0.66422  0.63126  1.0000
  H   H2742     1.0  0.63031  0.65734  0.66027  1.0000
  C   C1562     1.0  0.65632  0.55867  0.68537  1.0000
  C   C1563     1.0  0.62387  0.67348  0.87731  1.0000
  C   C1564     1.0  0.53358  0.55028  0.90169  1.0000
  H   H2743     1.0  0.58910  0.55711  0.92359  1.0000
  H   H2744     1.0  0.58551  0.59094  0.66719  1.0000
  H   H2745     1.0  0.51976  0.52224  0.91378  1.0000
  H   H2746     1.0  0.62456  0.66652  0.77198  1.0000
  C   C1565     1.0  0.65220  0.60957  0.62186  1.0000
  C   C1566     1.0  0.57787  0.52118  0.97044  1.0000
  N   N88       1.0  0.52336  0.51283  0.57752  1.0000
  C   C1567     1.0  0.51661  0.51413  0.65523  1.0000
  H   H2747     1.0  0.63566  0.68503  0.91343  1.0000
  H   H2748     1.0  0.62949  0.53919  0.68221  1.0000
  C   C1568     1.0  0.58270  0.59646  0.91629  1.0000
  H   H2749     1.0  0.61769  0.53367  0.88246  1.0000
  C   C1569     1.0  0.65759  0.72223  0.82512  1.0000
  H   H2750     1.0  0.62524  0.67108  0.80713  1.0000
  H   H2751     1.0  0.52488  0.51124  0.67240  1.0000
  C   C1570     1.0  0.58859  0.57231  0.63658  1.0000
  H   H2752     1.0  0.64260  0.54900  0.63625  1.0000
  C   C1571     1.0  0.62844  0.55108  0.58803  1.0000
  H   H2753     1.0  0.57457  0.53328  0.63771  1.0000
  H   H2754     1.0  0.64912  0.74847  0.75522  1.0000
  H   H2755     1.0  0.62641  0.67909  0.65282  1.0000
  H   H2756     1.0  0.56349  0.55968  0.80197  1.0000
  C   C1572     1.0  0.63821  0.70359  0.77482  1.0000
  H   H2757     1.0  0.65444  0.66199  0.87872  1.0000
  H   H2758     1.0  0.63390  0.62783  0.80581  1.0000
  H   H2759     1.0  0.47733  0.51598  0.52816  1.0000
  H   H2760     1.0  0.57311  0.60432  0.95464  1.0000
  H   H2761     1.0  0.52027  0.52739  0.87802  1.0000
  H   H2762     1.0  0.47864  0.53890  0.53609  1.0000
  H   H2763     1.0  0.61228  0.64591  0.49022  1.0000
  C   C1573     1.0  0.65939  0.73339  0.84992  1.0000
  H   H2764     1.0  0.59756  0.74155  0.73962  1.0000
  H   H2765     1.0  0.64893  0.69512  0.88343  1.0000
  H   H2766     1.0  0.48577  0.52208  0.57551  1.0000
  H   H2767     1.0  0.62774  0.56149  0.68860  1.0000
  H   H2768     1.0  0.58382  0.53434  0.88538  1.0000
  H   H2769     1.0  0.58449  0.57481  0.81447  1.0000
  C   C1574     1.0  0.66045  0.60770  0.84479  1.0000
  H   H2770     1.0  0.65824  0.60531  0.88788  1.0000
  H   H2771     1.0  0.64393  0.72986  0.73431  1.0000
  C   C1575     1.0  0.60413  0.56558  0.65132  1.0000
  C   C1576     1.0  0.63562  0.55371  0.67676  1.0000
  S   S364      1.0  0.66194  0.60700  0.65329  1.0000
  C   C1577     1.0  0.48715  0.52900  0.53345  1.0000
  H   H2772     1.0  0.61110  0.71858  0.76051  1.0000
  H   H2773     1.0  0.59646  0.65623  0.66553  1.0000
  H   H2774     1.0  0.66243  0.60672  0.55526  1.0000
  H   H2775     1.0  0.58849  0.62246  0.93417  1.0000
  H   H2776     1.0  0.60244  0.53091  0.66198  1.0000
  C   C1578     1.0  0.64161  0.73390  0.75503  1.0000
  H   H2777     1.0  0.59557  0.58330  0.62160  1.0000
  C   C1579     1.0  0.64844  0.68885  0.78243  1.0000
  C   C1580     1.0  0.61675  0.56039  0.60644  1.0000
  C   C1581     1.0  0.66323  0.71853  0.68923  1.0000
  H   H2778     1.0  0.53452  0.54555  0.54012  1.0000
  N   N89       1.0  0.61466  0.55435  0.63573  1.0000
  C   C1582     1.0  0.59505  0.54727  0.88505  1.0000
  H   H2779     1.0  0.56714  0.51829  0.78492  1.0000
  H   H2780     1.0  0.58641  0.60273  0.89582  1.0000
  H   H2781     1.0  0.62495  0.55572  0.89598  1.0000
  N   N90       1.0  0.57005  0.56509  0.89618  1.0000
  H   H2782     1.0  0.63254  0.57170  0.55562  1.0000
  H   H2783     1.0  0.54810  0.55412  0.84713  1.0000
  H   H2784     1.0  0.64286  0.57172  0.64130  1.0000
  H   H2785     1.0  0.60670  0.52548  0.80952  1.0000
  C   C1583     1.0  0.62739  0.55681  0.55862  1.0000
  H   H2786     1.0  0.63322  0.72858  0.80877  1.0000
  C   C1584     1.0  0.61308  0.54319  0.89560  1.0000
  C   C1585     1.0  0.57657  0.60997  0.93377  1.0000
  H   H2787     1.0  0.63281  0.70023  0.75447  1.0000
  H   H2788     1.0  0.59854  0.55269  0.86410  1.0000
  H   H2789     1.0  0.60120  0.53494  0.77830  1.0000
  C   C1586     1.0  0.55422  0.54795  0.90135  1.0000
  Fe  Fe184     1.0  0.63096  0.57491  0.97430  1.0000
  C   C1587     1.0  0.63454  0.55757  0.64621  1.0000
  C   C1588     1.0  0.60494  0.53451  0.64017  1.0000
  H   H2790     1.0  0.56822  0.56914  0.67055  1.0000
  S   S365      1.0  0.52165  0.52175  0.97360  1.0000
  C   C1589     1.0  0.54696  0.52788  0.97474  1.0000
  C   C1590     1.0  0.52808  0.50764  0.81682  1.0000
  C   C1591     1.0  0.61297  0.74239  0.73606  1.0000
  H   H2791     1.0  0.64379  0.55501  0.59285  1.0000
  H   H2792     1.0  0.49787  0.53403  0.51667  1.0000
  C   C1592     1.0  0.63412  0.67058  0.78885  1.0000
  H   H2793     1.0  0.50877  0.52278  0.80236  1.0000
  C   C1593     1.0  0.66451  0.66472  0.63697  1.0000
  H   H2794     1.0  0.63866  0.67148  0.56293  1.0000
  C   C1594     1.0  0.51327  0.51150  0.60476  1.0000
  H   H2795     1.0  0.66043  0.65895  0.53508  1.0000
  C   C1595     1.0  0.58751  0.53919  0.97475  1.0000
  H   H2796     1.0  0.65795  0.68731  0.76532  1.0000
  S   S366      1.0  0.65857  0.62536  0.96878  1.0000
  H   H2797     1.0  0.61474  0.73607  0.71687  1.0000
  S   S367      1.0  0.61642  0.59716  0.97477  1.0000
  H   H2798     1.0  0.65477  0.69618  0.63978  1.0000
  H   H2799     1.0  0.58385  0.56532  0.98290  1.0000
  C   C1596     1.0  0.66265  0.66979  0.58802  1.0000
  C   C1597     1.0  0.66341  0.67373  0.53736  1.0000
  H   H2800     1.0  0.61743  0.73931  0.77786  1.0000
  H   H2801     1.0  0.52422  0.51769  0.77662  1.0000
  H   H2802     1.0  0.64528  0.73517  0.85660  1.0000
  H   H2803     1.0  0.65663  0.55563  0.70720  1.0000
  H   H2804     1.0  0.65448  0.74540  0.80121  1.0000
  H   H2805     1.0  0.55527  0.50567  0.54665  1.0000
  H   H2806     1.0  0.65702  0.69247  0.56441  1.0000
  C   C1598     1.0  0.55658  0.54585  0.97923  1.0000
  S   S368      1.0  0.37046  0.93893  0.15079  1.0000
  C   C1599     1.0  0.37485  0.93863  0.42347  1.0000
  C   C1600     1.0  0.43011  0.94389  0.04632  1.0000
  H   H2807     1.0  0.37319  0.92786  0.38357  1.0000
  C   C1601     1.0  0.36173  0.98150  0.06624  1.0000
  H   H2808     1.0  0.48655  0.99017  0.37190  1.0000
  S   S369      1.0  0.47195  0.99064  0.01722  1.0000
  C   C1602     1.0  0.66121  0.96951  0.04788  1.0000
  H   H2809     1.0  0.62065  0.97193  0.08476  1.0000
  S   S370      1.0  0.49243  0.98720  0.27408  1.0000
  H   H2810     1.0  0.38368  0.95541  0.09417  1.0000
  H   H2811     1.0  0.53870  0.99926  0.35307  1.0000
  H   H2812     1.0  0.36997  0.99063  0.08093  1.0000
  S   S371      1.0  0.45063  0.99947  0.38311  1.0000
  C   C1603     1.0  0.37371  0.00271  0.02566  1.0000
  H   H2813     1.0  0.62387  0.98421  0.05285  1.0000
  H   H2814     1.0  0.40408  0.94113  0.11742  1.0000
  S   S372      1.0  0.46887  0.98343  0.20083  1.0000
  C   C1604     1.0  0.43363  0.95658  0.45413  1.0000
  H   H2815     1.0  0.43828  0.95851  0.00772  1.0000
  H   H2816     1.0  0.44667  0.99527  0.08126  1.0000
  H   H2817     1.0  0.66034  0.78401  0.99887  1.0000
  H   H2818     1.0  0.35640  0.98734  0.34358  1.0000
  H   H2819     1.0  0.35915  0.96738  0.07416  1.0000
  H   H2820     1.0  0.39201  0.97828  0.30814  1.0000
  C   C1605     1.0  0.44159  0.94734  0.01966  1.0000
  C   C1606     1.0  0.49163  0.97744  0.05495  1.0000
  C   C1607     1.0  0.43377  0.96117  0.06273  1.0000
  H   H2821     1.0  0.43389  0.93266  0.05723  1.0000
  C   C1608     1.0  0.45563  0.94601  0.26066  1.0000
  C   C1609     1.0  0.64410  0.78771  0.28552  1.0000
  C   C1610     1.0  0.35387  0.00045  0.33738  1.0000
  H   H2822     1.0  0.64287  0.82852  0.44167  1.0000
  C   C1611     1.0  0.46363  0.99809  0.35291  1.0000
  C   C1612     1.0  0.38414  0.99869  0.40411  1.0000
  H   H2823     1.0  0.53528  0.99566  0.38888  1.0000
  H   H2824     1.0  0.37975  0.00201  0.46145  1.0000
  H   H2825     1.0  0.49190  0.96713  0.04093  1.0000
  H   H2826     1.0  0.65420  0.81684  0.48362  1.0000
  H   H2827     1.0  0.63152  0.78126  0.32532  1.0000
  H   H2828     1.0  0.39100  0.99064  0.26818  1.0000
  C   C1613     1.0  0.34434  0.99883  0.31043  1.0000
  C   C1614     1.0  0.66230  0.78946  0.04103  1.0000
  C   C1615     1.0  0.55119  0.99192  0.06980  1.0000
  C   C1616     1.0  0.48174  0.99261  0.30401  1.0000
  C   C1617     1.0  0.48939  0.98968  0.32874  1.0000
  H   H2829     1.0  0.65844  0.98066  0.03535  1.0000
  H   H2830     1.0  0.42961  0.97686  0.42648  1.0000
  H   H2831     1.0  0.64928  0.96467  0.06299  1.0000
  H   H2832     1.0  0.46952  0.95035  0.27047  1.0000
  H   H2833     1.0  0.44161  0.95762  0.29072  1.0000
  H   H2834     1.0  0.45428  0.96682  0.10755  1.0000
  H   H2835     1.0  0.34757  0.98430  0.06418  1.0000
  Fe  Fe185     1.0  0.48785  0.99794  0.23251  1.0000
  C   C1618     1.0  0.37913  0.95463  0.33263  1.0000
  H   H2836     1.0  0.45850  0.94695  0.23864  1.0000
  Fe  Fe186     1.0  0.33930  0.93719  0.14341  1.0000
  C   C1619     1.0  0.49553  0.98773  0.10046  1.0000
  C   C1620     1.0  0.66029  0.77859  0.32331  1.0000
  H   H2837     1.0  0.35370  0.99406  0.29611  1.0000
  H   H2838     1.0  0.50226  0.96384  0.08695  1.0000
  C   C1621     1.0  0.38626  0.95857  0.16245  1.0000
  C   C1622     1.0  0.40475  0.95799  0.16906  1.0000
  C   C1623     1.0  0.41823  0.97357  0.17667  1.0000
  C   C1624     1.0  0.41328  0.98986  0.17826  1.0000
  C   C1625     1.0  0.39466  0.99038  0.17218  1.0000
  C   C1626     1.0  0.38120  0.97481  0.16428  1.0000
  H   H2839     1.0  0.40875  0.94546  0.16796  1.0000
  H   H2840     1.0  0.43244  0.97291  0.18120  1.0000
  C   C1627     1.0  0.36406  0.92672  0.40212  1.0000
  H   H2841     1.0  0.36700  0.97545  0.15937  1.0000
  H   H2842     1.0  0.63146  0.79073  0.27780  1.0000
  H   H2843     1.0  0.37888  0.99043  0.38679  1.0000
  C   C1628     1.0  0.44288  0.95811  0.26857  1.0000
  H   H2844     1.0  0.43846  0.96593  0.47045  1.0000
  C   C1629     1.0  0.38111  0.95871  0.41346  1.0000
  H   H2845     1.0  0.65981  0.83401  0.34316  1.0000
  H   H2846     1.0  0.35871  0.00282  0.02148  1.0000
  C   C1630     1.0  0.39180  0.95587  0.24564  1.0000
  H   H2847     1.0  0.36208  0.93185  0.06983  1.0000
  C   C1631     1.0  0.54618  0.00040  0.37225  1.0000
  H   H2848     1.0  0.38717  0.98236  0.04259  1.0000
  C   C1632     1.0  0.39767  0.99019  0.42045  1.0000
  H   H2849     1.0  0.45312  0.93489  0.14919  1.0000
  C   C1633     1.0  0.66055  0.98818  0.31701  1.0000
  H   H2850     1.0  0.40921  0.98907  0.40595  1.0000
  H   H2851     1.0  0.54155  0.99750  0.08255  1.0000
  H   H2852     1.0  0.39736  0.94103  0.29557  1.0000
  H   H2853     1.0  0.41018  0.93072  0.08926  1.0000
  H   H2854     1.0  0.42588  0.94310  0.46300  1.0000
  H   H2855     1.0  0.45716  0.95080  0.02312  1.0000
  H   H2856     1.0  0.36657  0.96035  0.46523  1.0000
  H   H2857     1.0  0.65234  0.79772  0.04052  1.0000
  H   H2858     1.0  0.54344  0.98657  0.05178  1.0000
  C   C1634     1.0  0.40308  0.96660  0.45111  1.0000
  H   H2859     1.0  0.41684  0.95438  0.41921  1.0000
  H   H2860     1.0  0.62902  0.75803  0.24546  1.0000
  C   C1635     1.0  0.39016  0.94669  0.08179  1.0000
  H   H2861     1.0  0.65286  0.75655  0.11260  1.0000
  C   C1636     1.0  0.37579  0.98868  0.47237  1.0000
  H   H2862     1.0  0.41341  0.97399  0.11913  1.0000
  C   C1637     1.0  0.42306  0.95189  0.25584  1.0000
  N   N91       1.0  0.40823  0.96152  0.26406  1.0000
  H   H2863     1.0  0.55466  0.98058  0.08106  1.0000
  C   C1638     1.0  0.62395  0.98561  0.07488  1.0000
  H   H2864     1.0  0.44883  0.93176  0.26725  1.0000
  H   H2865     1.0  0.38751  0.98787  0.48560  1.0000
  S   S373      1.0  0.59093  0.00153  0.46967  1.0000
  H   H2866     1.0  0.34144  0.94107  0.26201  1.0000
  H   H2867     1.0  0.40882  0.97694  0.46580  1.0000
  C   C1639     1.0  0.35346  0.98890  0.22944  1.0000
  H   H2868     1.0  0.41102  0.97954  0.08497  1.0000
  N   N92       1.0  0.38844  0.97216  0.43442  1.0000
  C   C1640     1.0  0.48059  0.99268  0.35304  1.0000
  H   H2869     1.0  0.55228  0.99056  0.45318  1.0000
  H   H2870     1.0  0.35970  0.94087  0.21985  1.0000
  H   H2871     1.0  0.63843  0.99328  0.08051  1.0000
  H   H2872     1.0  0.35078  0.93061  0.39737  1.0000
  C   C1641     1.0  0.60894  0.99501  0.08381  1.0000
  H   H2873     1.0  0.44651  0.95530  0.44261  1.0000
  H   H2874     1.0  0.55605  0.99157  0.37233  1.0000
  C   C1642     1.0  0.45598  0.00106  0.32817  1.0000
  H   H2875     1.0  0.47356  0.94752  0.12860  1.0000
  H   H2876     1.0  0.37229  0.94003  0.33077  1.0000
  H   H2877     1.0  0.39401  0.95347  0.06169  1.0000
  H   H2878     1.0  0.65914  0.96206  0.33506  1.0000
  C   C1643     1.0  0.49728  0.97545  0.08122  1.0000
  H   H2879     1.0  0.50214  0.98491  0.32911  1.0000
  H   H2880     1.0  0.43793  0.93502  0.00792  1.0000
  C   C1644     1.0  0.43812  0.99303  0.10037  1.0000
  H   H2881     1.0  0.36724  0.99181  0.21769  1.0000
  C   C1645     1.0  0.38032  0.93572  0.24819  1.0000
  H   H2882     1.0  0.43568  0.95599  0.13137  1.0000
  H   H2883     1.0  0.41438  0.96024  0.30607  1.0000
  H   H2884     1.0  0.39631  0.95406  0.46342  1.0000
  C   C1646     1.0  0.38619  0.96368  0.30512  1.0000
  C   C1647     1.0  0.41742  0.98160  0.26067  1.0000
  H   H2885     1.0  0.56361  0.96370  0.47346  1.0000
  H   H2886     1.0  0.43508  0.92614  0.10800  1.0000
  C   C1648     1.0  0.37490  0.92900  0.07863  1.0000
  H   H2887     1.0  0.37112  0.93318  0.26686  1.0000
  H   H2888     1.0  0.38955  0.92639  0.24886  1.0000
  C   C1649     1.0  0.48907  0.00273  0.09263  1.0000
  H   H2889     1.0  0.36496  0.97304  0.02656  1.0000
  H   H2890     1.0  0.46517  0.92347  0.12643  1.0000
  C   C1650     1.0  0.40798  0.94366  0.09566  1.0000
  S   S374      1.0  0.50100  0.98311  0.13391  1.0000
  H   H2891     1.0  0.45043  0.97208  0.26155  1.0000
  H   H2892     1.0  0.41784  0.93721  0.26086  1.0000
  C   C1651     1.0  0.42084  0.96386  0.43549  1.0000
  H   H2893     1.0  0.39713  0.95926  0.22449  1.0000
  H   H2894     1.0  0.36825  0.96075  0.34149  1.0000
  H   H2895     1.0  0.42580  0.95330  0.23367  1.0000
  S   S375      1.0  0.65817  0.79564  0.23432  1.0000
  H   H2896     1.0  0.42582  0.98640  0.27849  1.0000
  H   H2897     1.0  0.59495  0.98668  0.07754  1.0000
  C   C1652     1.0  0.36753  0.93062  0.22444  1.0000
  C   C1653     1.0  0.42109  0.97601  0.09921  1.0000
  H   H2898     1.0  0.65609  0.97792  0.35830  1.0000
  C   C1654     1.0  0.40207  0.95600  0.29291  1.0000
  H   H2899     1.0  0.45936  0.00130  0.28496  1.0000
  H   H2900     1.0  0.38101  0.96351  0.24871  1.0000
  H   H2901     1.0  0.37364  0.96160  0.29234  1.0000
  H   H2902     1.0  0.60841  0.99474  0.10589  1.0000
  C   C1655     1.0  0.48471  0.99208  0.04710  1.0000
  H   H2903     1.0  0.37637  0.92941  0.20645  1.0000
  C   C1656     1.0  0.64415  0.78236  0.31256  1.0000
  H   H2904     1.0  0.39116  0.95638  0.34636  1.0000
  H   H2905     1.0  0.45558  0.93919  0.08773  1.0000
  H   H2906     1.0  0.35694  0.91741  0.22887  1.0000
  H   H2907     1.0  0.42797  0.98461  0.24326  1.0000
  H   H2908     1.0  0.38045  0.98039  0.98737  1.0000
  C   C1657     1.0  0.44732  0.93834  0.10700  1.0000
  C   C1658     1.0  0.46058  0.93596  0.12921  1.0000
  H   H2909     1.0  0.40510  0.00003  0.43497  1.0000
  Fe  Fe187     1.0  0.49283  0.99634  0.17070  1.0000
  H   H2910     1.0  0.36855  0.96171  0.40393  1.0000
  C   C1659     1.0  0.44084  0.95577  0.11020  1.0000
  H   H2911     1.0  0.39964  0.99279  0.23406  1.0000
  N   N93       1.0  0.42598  0.95889  0.09144  1.0000
  H   H2912     1.0  0.37052  0.92178  0.09840  1.0000
  H   H2913     1.0  0.38035  0.92018  0.06515  1.0000
  C   C1660     1.0  0.63917  0.98302  0.31187  1.0000
  H   H2914     1.0  0.57858  0.00023  0.04859  1.0000
  C   C1661     1.0  0.37269  0.98400  0.03914  1.0000
  H   H2915     1.0  0.42779  0.97080  0.05096  1.0000
  H   H2916     1.0  0.62501  0.76855  0.11543  1.0000
  C   C1662     1.0  0.65996  0.78887  0.26828  1.0000
  S   S376      1.0  0.66358  0.79552  0.09492  1.0000
  S   S377      1.0  0.65850  0.77122  0.35762  1.0000
  H   H2917     1.0  0.39064  0.00289  0.17337  1.0000
  H   H2918     1.0  0.66155  0.95815  0.03497  1.0000
  H   H2919     1.0  0.43567  0.00365  0.03741  1.0000
  H   H2920     1.0  0.44742  0.99169  0.11711  1.0000
  H   H2921     1.0  0.37156  0.99981  0.41638  1.0000
  H   H2922     1.0  0.44945  0.96754  0.06204  1.0000
  C   C1663     1.0  0.65079  0.81801  0.44126  1.0000
  H   H2923     1.0  0.55768  0.00305  0.99523  1.0000
  H   H2924     1.0  0.35990  0.91244  0.40972  1.0000
  H   H2925     1.0  0.63644  0.99118  0.29440  1.0000
  H   H2926     1.0  0.41478  0.93922  0.04168  1.0000
  H   H2927     1.0  0.35919  0.97391  0.44101  1.0000
  S   S378      1.0  0.48737  0.00115  0.44601  1.0000
  H   H2928     1.0  0.38748  0.93374  0.42834  1.0000
  H   H2929     1.0  0.63087  0.98573  0.32954  1.0000
  H   H2930     1.0  0.34443  0.00398  0.35299  1.0000
  H   H2931     1.0  0.35336  0.97837  0.24523  1.0000
  C   C1664     1.0  0.40412  0.99404  0.25510  1.0000
  H   H2932     1.0  0.64024  0.80457  0.44196  1.0000
  H   H2933     1.0  0.34088  0.93215  0.00331  1.0000
  C   C1665     1.0  0.37177  0.97307  0.45273  1.0000
  H   H2934     1.0  0.39198  0.96000  0.39679  1.0000
  H   H2935     1.0  0.36540  0.93660  0.44172  1.0000
  H   H2936     1.0  0.65946  0.81961  0.42218  1.0000
  H   H2937     1.0  0.40816  0.99443  0.00896  1.0000
  H   H2938     1.0  0.63408  0.96858  0.30731  1.0000
  H   H2939     1.0  0.54067  0.99988  0.15286  1.0000
  H   H2940     1.0  0.34581  0.98843  0.47803  1.0000
  C   C1666     1.0  0.46521  0.99873  0.30383  1.0000
  C   C1667     1.0  0.66362  0.81930  0.46519  1.0000
  H   H2941     1.0  0.34168  0.98375  0.21570  1.0000
  C   C1668     1.0  0.33141  0.94077  0.00572  1.0000
  C   C1669     1.0  0.62347  0.75437  0.12246  1.0000
  S   S379      1.0  0.37711  0.94884  0.64233  1.0000
  C   C1670     1.0  0.40016  0.97892  0.57713  1.0000
  H   H2942     1.0  0.55141  0.98433  0.50176  1.0000
  H   H2943     1.0  0.52116  0.97345  0.49758  1.0000
  H   H2944     1.0  0.52291  0.00252  0.90034  1.0000
  C   C1671     1.0  0.55535  0.99953  0.75820  1.0000
  S   S380      1.0  0.46144  0.98488  0.51897  1.0000
  H   H2945     1.0  0.36108  0.99957  0.50343  1.0000
  C   C1672     1.0  0.60072  0.98053  0.90704  1.0000
  S   S381      1.0  0.50043  0.99259  0.76797  1.0000
  H   H2946     1.0  0.56758  0.94349  0.48855  1.0000
  C   C1673     1.0  0.60408  0.00129  0.90433  1.0000
  S   S382      1.0  0.50579  0.99330  0.62741  1.0000
  H   H2947     1.0  0.53456  0.99719  0.92983  1.0000
  C   C1674     1.0  0.38792  0.99732  0.95160  1.0000
  C   C1675     1.0  0.52196  0.97009  0.54191  1.0000
  H   H2948     1.0  0.53019  0.00238  0.55782  1.0000
  S   S383      1.0  0.47369  0.99030  0.69677  1.0000
  C   C1676     1.0  0.37851  0.98231  0.93327  1.0000
  H   H2949     1.0  0.58764  0.97419  0.91965  1.0000
  C   C1677     1.0  0.48920  0.99473  0.84789  1.0000
  H   H2950     1.0  0.56667  0.99558  0.76944  1.0000
  H   H2951     1.0  0.54858  0.96045  0.56971  1.0000
  H   H2952     1.0  0.41044  0.94881  0.59974  1.0000
  C   C1678     1.0  0.60522  0.00364  0.84346  1.0000
  H   H2953     1.0  0.33516  0.95602  0.71596  1.0000
  H   H2954     1.0  0.41694  0.99831  0.73994  1.0000
  H   H2955     1.0  0.54350  0.97591  0.63882  1.0000
  H   H2956     1.0  0.50843  0.98496  0.82231  1.0000
  C   C1679     1.0  0.60058  0.99383  0.81744  1.0000
  C   C1680     1.0  0.33358  0.95277  0.75908  1.0000
  H   H2957     1.0  0.57928  0.98644  0.86221  1.0000
  H   H2958     1.0  0.33213  0.90268  0.92110  1.0000
  C   C1681     1.0  0.63883  0.78168  0.78424  1.0000
  C   C1682     1.0  0.54066  0.97875  0.59600  1.0000
  C   C1683     1.0  0.57028  0.00043  0.90474  1.0000
  H   H2959     1.0  0.43808  0.99131  0.59982  1.0000
  C   C1684     1.0  0.54299  0.00103  0.54612  1.0000
  H   H2960     1.0  0.34884  0.00106  0.58057  1.0000
  C   C1685     1.0  0.58690  0.00106  0.86144  1.0000
  C   C1686     1.0  0.35816  0.98792  0.49032  1.0000
  H   H2961     1.0  0.40334  0.99780  0.95176  1.0000
  H   H2962     1.0  0.49430  0.99019  0.86626  1.0000
  C   C1687     1.0  0.49710  0.99169  0.82294  1.0000
  S   S384      1.0  0.33226  0.94910  0.81386  1.0000
  C   C1688     1.0  0.41492  0.00246  0.54172  1.0000
  H   H2963     1.0  0.52113  0.95552  0.54496  1.0000
  H   H2964     1.0  0.38540  0.97274  0.57055  1.0000
  H   H2965     1.0  0.34614  0.94780  0.75995  1.0000
  C   C1689     1.0  0.37567  0.97757  0.83538  1.0000
  H   H2966     1.0  0.33360  0.99065  0.94876  1.0000
  C   C1690     1.0  0.47306  0.98858  0.54977  1.0000
  C   C1691     1.0  0.46812  0.97496  0.57012  1.0000
  C   C1692     1.0  0.47735  0.97693  0.59455  1.0000
  C   C1693     1.0  0.49158  0.99264  0.59910  1.0000
  S   S385      1.0  0.33448  0.97016  0.63603  1.0000
  C   C1694     1.0  0.49033  0.99710  0.79885  1.0000
  H   H2967     1.0  0.45741  0.96256  0.56676  1.0000
  H   H2968     1.0  0.47383  0.96601  0.60964  1.0000
  C   C1695     1.0  0.40749  0.99575  0.75839  1.0000
  S   S386      1.0  0.65454  0.78879  0.73385  1.0000
  C   C1696     1.0  0.39269  0.96808  0.65547  1.0000
  C   C1697     1.0  0.41238  0.96950  0.65505  1.0000
  C   C1698     1.0  0.42526  0.98447  0.66541  1.0000
  C   C1699     1.0  0.61733  0.97547  0.92046  1.0000
  H   H2969     1.0  0.54138  0.99322  0.59768  1.0000
  C   C1700     1.0  0.38598  0.98191  0.66623  1.0000
  H   H2970     1.0  0.41773  0.95891  0.64675  1.0000
  H   H2971     1.0  0.44038  0.98537  0.66467  1.0000
  H   H2972     1.0  0.61603  0.99815  0.85333  1.0000
  H   H2973     1.0  0.37085  0.98094  0.66669  1.0000
  H   H2974     1.0  0.58994  0.00224  0.71107  1.0000
  H   H2975     1.0  0.36279  0.99153  0.97869  1.0000
  H   H2976     1.0  0.51269  0.97288  0.55846  1.0000
  C   C1701     1.0  0.53446  0.99682  0.90766  1.0000
  H   H2977     1.0  0.56034  0.95261  0.53335  1.0000
  Fe  Fe188     1.0  0.34520  0.94565  0.64071  1.0000
  S   S387      1.0  0.33186  0.94281  0.95061  1.0000
  C   C1702     1.0  0.47407  0.00282  0.84897  1.0000
  C   C1703     1.0  0.40722  0.94828  0.57817  1.0000
  C   C1704     1.0  0.39892  0.99694  0.67660  1.0000
  H   H2978     1.0  0.33636  0.92731  0.50801  1.0000
  H   H2979     1.0  0.40502  0.99406  0.52774  1.0000
  C   C1705     1.0  0.39209  0.98195  0.81421  1.0000
  H   H2980     1.0  0.35440  0.97537  0.50324  1.0000
  H   H2981     1.0  0.60578  0.99990  0.68386  1.0000
  H   H2982     1.0  0.33493  0.00058  0.68302  1.0000
  H   H2983     1.0  0.63110  0.98181  0.90932  1.0000
  H   H2984     1.0  0.36301  0.98124  0.93182  1.0000
  H   H2985     1.0  0.53138  0.98261  0.90177  1.0000
  H   H2986     1.0  0.59431  0.97915  0.82169  1.0000
  H   H2987     1.0  0.65513  0.99431  0.55581  1.0000
  H   H2988     1.0  0.38323  0.99968  0.73568  1.0000
  H   H2989     1.0  0.42795  0.97320  0.56734  1.0000
  Fe  Fe189     1.0  0.49680  0.00393  0.66591  1.0000
  H   H2990     1.0  0.41014  0.96594  0.54325  1.0000
  H   H2991     1.0  0.41667  0.00292  0.77416  1.0000
  H   H2992     1.0  0.65466  0.81689  0.80796  1.0000
  H   H2993     1.0  0.48629  0.96050  0.49499  1.0000
  H   H2994     1.0  0.38040  0.98456  0.85397  1.0000
  S   S388      1.0  0.65369  0.77666  0.86058  1.0000
  H   H2995     1.0  0.61500  0.96062  0.92090  1.0000
  H   H2996     1.0  0.38019  0.96912  0.94098  1.0000
  H   H2997     1.0  0.33151  0.94055  0.55132  1.0000
  H   H2998     1.0  0.62565  0.78169  0.77466  1.0000
  H   H2999     1.0  0.39176  0.94164  0.57624  1.0000
  H   H3000     1.0  0.56590  0.98094  0.61966  1.0000
  H   H3001     1.0  0.61822  0.97976  0.94145  1.0000
  H   H3002     1.0  0.37884  0.99943  0.55465  1.0000
  H   H3003     1.0  0.52545  0.97083  0.59771  1.0000
  C   C1706     1.0  0.41860  0.99819  0.67645  1.0000
  H   H3004     1.0  0.64521  0.96335  0.53980  1.0000
  H   H3005     1.0  0.62526  0.77682  0.82360  1.0000
  H   H3006     1.0  0.61388  0.99557  0.80486  1.0000
  H   H3007     1.0  0.54966  0.95853  0.62014  1.0000
  C   C1707     1.0  0.63860  0.77889  0.81206  1.0000
  C   C1708     1.0  0.56819  0.95780  0.49188  1.0000
  H   H3008     1.0  0.64228  0.95433  0.57414  1.0000
  N   N94       1.0  0.54232  0.98132  0.54395  1.0000
  H   H3009     1.0  0.57182  0.00312  0.92648  1.0000
  H   H3010     1.0  0.59048  0.99940  0.80587  1.0000
  H   H3011     1.0  0.48413  0.95586  0.53065  1.0000
  N   N95       1.0  0.40084  0.97580  0.76534  1.0000
  C   C1709     1.0  0.51193  0.97286  0.51580  1.0000
  C   C1710     1.0  0.41789  0.96942  0.77348  1.0000
  C   C1711     1.0  0.39188  0.96640  0.74110  1.0000
  C   C1712     1.0  0.38612  0.97166  0.78835  1.0000
  H   H3012     1.0  0.65860  0.79713  0.54215  1.0000
  H   H3013     1.0  0.39925  0.97649  0.59927  1.0000
  C   C1713     1.0  0.38693  0.94551  0.74286  1.0000
  C   C1714     1.0  0.43386  0.97103  0.75140  1.0000
  C   C1715     1.0  0.44942  0.96269  0.76149  1.0000
  H   H3014     1.0  0.37198  0.98798  0.60370  1.0000
  C   C1716     1.0  0.65647  0.98309  0.56940  1.0000
  C   C1717     1.0  0.37797  0.93763  0.71722  1.0000
  H   H3015     1.0  0.40431  0.97805  0.82312  1.0000
  H   H3016     1.0  0.42796  0.99764  0.53954  1.0000
  H   H3017     1.0  0.42503  0.97730  0.79026  1.0000
  H   H3018     1.0  0.41328  0.95522  0.78164  1.0000
  H   H3019     1.0  0.40118  0.97123  0.72274  1.0000
  H   H3020     1.0  0.37829  0.96994  0.73702  1.0000
  H   H3021     1.0  0.37235  0.97401  0.78207  1.0000
  H   H3022     1.0  0.38241  0.95708  0.79446  1.0000
  H   H3023     1.0  0.39624  0.99675  0.81023  1.0000
  H   H3024     1.0  0.56540  0.98553  0.90372  1.0000
  H   H3025     1.0  0.33581  0.88066  0.57064  1.0000
  H   H3026     1.0  0.56580  0.98178  0.56987  1.0000
  H   H3027     1.0  0.37657  0.93987  0.75976  1.0000
  H   H3028     1.0  0.39989  0.94069  0.74560  1.0000
  H   H3029     1.0  0.42826  0.96407  0.73316  1.0000
  H   H3030     1.0  0.44078  0.98540  0.74565  1.0000
  H   H3031     1.0  0.45578  0.96934  0.77963  1.0000
  H   H3032     1.0  0.44346  0.94804  0.76628  1.0000
  H   H3033     1.0  0.46103  0.96445  0.74582  1.0000
  H   H3034     1.0  0.57019  0.98659  0.52369  1.0000
  H   H3035     1.0  0.38536  0.98518  0.91285  1.0000
  C   C1718     1.0  0.64200  0.96612  0.56086  1.0000
  C   C1719     1.0  0.55514  0.97872  0.52087  1.0000
  H   H3036     1.0  0.65425  0.81686  0.84425  1.0000
  C   C1720     1.0  0.55063  0.97316  0.62005  1.0000
  H   H3037     1.0  0.36503  0.94222  0.71294  1.0000
  H   H3038     1.0  0.38845  0.94172  0.69998  1.0000
  H   H3039     1.0  0.37371  0.92269  0.71936  1.0000
  C   C1721     1.0  0.41252  0.96725  0.56502  1.0000
  H   H3040     1.0  0.62739  0.96810  0.56211  1.0000
  H   H3041     1.0  0.58007  0.99202  0.68096  1.0000
  C   C1722     1.0  0.55015  0.97520  0.56925  1.0000
  H   H3042     1.0  0.59926  0.97452  0.88715  1.0000
  H   H3043     1.0  0.41571  0.94005  0.56836  1.0000
  C   C1723     1.0  0.55512  0.95892  0.51592  1.0000
  H   H3044     1.0  0.33566  0.90400  0.56821  1.0000
  C   C1724     1.0  0.49395  0.95748  0.51273  1.0000
  C   C1725     1.0  0.65585  0.78469  0.76876  1.0000
  H   H3045     1.0  0.49779  0.94463  0.50979  1.0000
  H   H3046     1.0  0.55761  0.99749  0.73661  1.0000
  H   H3047     1.0  0.35322  0.99627  0.70406  1.0000
  H   H3048     1.0  0.64301  0.83134  0.82536  1.0000
  H   H3049     1.0  0.58324  0.96506  0.49551  1.0000
  H   H3050     1.0  0.54054  0.95074  0.51171  1.0000
  C   C1726     1.0  0.37656  0.00250  0.59741  1.0000
  H   H3051     1.0  0.50746  0.98556  0.51644  1.0000
  H   H3052     1.0  0.62101  0.75684  0.73435  1.0000
  C   C1727     1.0  0.65537  0.82538  0.82554  1.0000
  C   C1728     1.0  0.65544  0.77930  0.82515  1.0000
  N   N96       1.0  0.40627  0.99897  0.56994  1.0000
  H   H3053     1.0  0.66180  0.81440  0.96084  1.0000
  C   C1729     1.0  0.37854  0.99366  0.98036  1.0000
  H   H3054     1.0  0.65638  0.83593  0.96364  1.0000
  H   H3055     1.0  0.37097  0.96284  0.84038  1.0000
  H   H3056     1.0  0.65230  0.98569  0.59007  1.0000
  H   H3057     1.0  0.54114  0.99067  0.76504  1.0000
  H   H3058     1.0  0.36330  0.98207  0.82807  1.0000
  C   C1730     1.0  0.59183  0.00267  0.68892  1.0000
  H   H3059     1.0  0.38143  0.00375  0.77073  1.0000
  H   H3060     1.0  0.41717  0.00390  0.88647  1.0000
  Fe  Fe190     1.0  0.49380  0.00400  0.72789  1.0000
  C   C1731     1.0  0.72106  0.08860  0.15331  1.0000
  H   H3061     1.0  0.75826  0.11484  0.08048  1.0000
  H   H3062     1.0  0.76510  0.08779  0.12498  1.0000
  H   H3063     1.0  0.81350  0.03020  0.01293  1.0000
  H   H3064     1.0  0.67047  0.06467  0.14236  1.0000
  H   H3065     1.0  0.83716  0.16347  0.12346  1.0000
  S   S389      1.0  0.71098  0.09520  0.22539  1.0000
  C   C1732     1.0  0.80812  0.06769  0.14769  1.0000
  Fe  Fe191     1.0  0.82682  0.13091  0.33762  1.0000
  S   S390      1.0  0.81556  0.15502  0.34143  1.0000
  S   S391      1.0  0.83188  0.11490  0.37439  1.0000
  Fe  Fe192     1.0  0.83112  0.13664  0.27639  1.0000
  S   S392      1.0  0.82019  0.16131  0.27647  1.0000
  S   S393      1.0  0.84245  0.12701  0.23877  1.0000
  Fe  Fe193     1.0  0.83921  0.16880  0.31155  1.0000
  S   S394      1.0  0.85838  0.19664  0.31968  1.0000
  Fe  Fe194     1.0  0.79786  0.14461  0.30626  1.0000
  S   S395      1.0  0.76569  0.14101  0.30965  1.0000
  S   S396      1.0  0.85140  0.14511  0.30953  1.0000
  S   S397      1.0  0.80790  0.11955  0.30417  1.0000
  H   H3066     1.0  0.88663  0.12658  0.12318  1.0000
  H   H3067     1.0  0.93156  0.22598  0.11362  1.0000
  H   H3068     1.0  0.70498  0.05230  0.15169  1.0000
  H   H3069     1.0  0.84816  0.03937  0.13612  1.0000
  H   H3070     1.0  0.83101  0.04553  0.47602  1.0000
  S   S398      1.0  0.94969  0.21716  0.31775  1.0000
  C   C1733     1.0  0.71757  0.05222  0.13847  1.0000
  C   C1734     1.0  0.75950  0.00876  0.17989  1.0000
  H   H3071     1.0  0.84978  0.02823  0.16791  1.0000
  Fe  Fe195     1.0  0.82211  0.13136  0.08896  1.0000
  S   S399      1.0  0.84956  0.12325  0.09035  1.0000
  S   S400      1.0  0.80451  0.13257  0.12700  1.0000
  Fe  Fe196     1.0  0.82447  0.13404  0.02731  1.0000
  S   S401      1.0  0.85188  0.12583  0.02565  1.0000
  C   C1735     1.0  0.69490  0.02769  0.37544  1.0000
  Fe  Fe197     1.0  0.83734  0.10481  0.05783  1.0000
  S   S402      1.0  0.83709  0.07505  0.05901  1.0000
  Fe  Fe198     1.0  0.86059  0.14543  0.05850  1.0000
  S   S403      1.0  0.89025  0.16549  0.05966  1.0000
  S   S404      1.0  0.80952  0.11206  0.05750  1.0000
  S   S405      1.0  0.83368  0.15446  0.05877  1.0000
  C   C1736     1.0  0.78689  0.02652  0.08762  1.0000
  C   C1737     1.0  0.78422  0.04396  0.08585  1.0000
  C   C1738     1.0  0.79942  0.05898  0.07733  1.0000
  C   C1739     1.0  0.81743  0.05670  0.07015  1.0000
  C   C1740     1.0  0.81997  0.03923  0.07159  1.0000
  C   C1741     1.0  0.80485  0.02426  0.08026  1.0000
  H   H3072     1.0  0.77041  0.04590  0.09144  1.0000
  H   H3073     1.0  0.79724  0.07233  0.07649  1.0000
  H   H3074     1.0  0.83377  0.03725  0.06595  1.0000
  H   H3075     1.0  0.75475  0.00806  0.15895  1.0000
  C   C1742     1.0  0.90694  0.22765  0.06512  1.0000
  C   C1743     1.0  0.88756  0.21790  0.06477  1.0000
  C   C1744     1.0  0.88220  0.19903  0.06212  1.0000
  C   C1745     1.0  0.89616  0.18951  0.06059  1.0000
  C   C1746     1.0  0.91553  0.19928  0.06069  1.0000
  C   C1747     1.0  0.92091  0.21821  0.06258  1.0000
  H   H3076     1.0  0.87659  0.22500  0.06652  1.0000
  H   H3077     1.0  0.86724  0.19183  0.06177  1.0000
  H   H3078     1.0  0.92650  0.19216  0.05929  1.0000
  H   H3079     1.0  0.93588  0.22544  0.06256  1.0000
  H   H3080     1.0  0.71279  0.08205  0.17183  1.0000
  H   H3081     1.0  0.75432  0.10488  0.17626  1.0000
  H   H3082     1.0  0.76872  0.08130  0.22163  1.0000
  C   C1748     1.0  0.70272  0.11248  0.15389  1.0000
  H   H3083     1.0  0.71906  0.02614  0.15543  1.0000
  H   H3084     1.0  0.76878  0.07072  0.17526  1.0000
  C   C1749     1.0  0.93703  0.24428  0.22768  1.0000
  C   C1750     1.0  0.72254  0.10908  0.15362  1.0000
  C   C1751     1.0  0.88375  0.20209  0.31857  1.0000
  C   C1752     1.0  0.89377  0.18943  0.31245  1.0000
  C   C1753     1.0  0.91393  0.19430  0.31205  1.0000
  C   C1754     1.0  0.92432  0.21188  0.31755  1.0000
  C   C1755     1.0  0.91428  0.22460  0.32324  1.0000
  C   C1756     1.0  0.89413  0.21969  0.32394  1.0000
  H   H3085     1.0  0.88603  0.17588  0.30810  1.0000
  H   H3086     1.0  0.92153  0.18435  0.30753  1.0000
  H   H3087     1.0  0.92201  0.23820  0.32732  1.0000
  H   H3088     1.0  0.88649  0.22958  0.32861  1.0000
  C   C1757     1.0  0.82406  0.11959  0.40648  1.0000
  C   C1758     1.0  0.81174  0.13064  0.40968  1.0000
  C   C1759     1.0  0.80610  0.13447  0.43546  1.0000
  C   C1760     1.0  0.81283  0.12740  0.45829  1.0000
  C   C1761     1.0  0.82502  0.11620  0.45514  1.0000
  C   C1762     1.0  0.83053  0.11224  0.42932  1.0000
  H   H3089     1.0  0.80647  0.13618  0.39232  1.0000
  H   H3090     1.0  0.79658  0.14306  0.43774  1.0000
  H   H3091     1.0  0.72960  0.03157  0.12179  1.0000
  H   H3092     1.0  0.84002  0.10362  0.42703  1.0000
  C   C1763     1.0  0.83184  0.12953  0.20815  1.0000
  C   C1764     1.0  0.81440  0.13403  0.20681  1.0000
  C   C1765     1.0  0.80614  0.13511  0.18183  1.0000
  C   C1766     1.0  0.81545  0.13206  0.15812  1.0000
  C   C1767     1.0  0.83314  0.12816  0.15966  1.0000
  C   C1768     1.0  0.84112  0.12661  0.18449  1.0000
  H   H3093     1.0  0.80708  0.13630  0.22500  1.0000
  H   H3094     1.0  0.79247  0.13823  0.18095  1.0000
  H   H3095     1.0  0.84056  0.12592  0.14185  1.0000
  H   H3096     1.0  0.85456  0.12306  0.18540  1.0000
  C   C1769     1.0  0.72567  0.10739  0.24984  1.0000
  C   C1770     1.0  0.71820  0.11225  0.27369  1.0000
  C   C1771     1.0  0.73058  0.12266  0.29183  1.0000
  C   C1772     1.0  0.75051  0.12789  0.28657  1.0000
  C   C1773     1.0  0.75794  0.12277  0.26293  1.0000
  C   C1774     1.0  0.74555  0.11283  0.24454  1.0000
  H   H3097     1.0  0.70291  0.10835  0.27788  1.0000
  H   H3098     1.0  0.72469  0.12666  0.31000  1.0000
  H   H3099     1.0  0.77321  0.12685  0.25850  1.0000
  H   H3100     1.0  0.75140  0.10951  0.22596  1.0000
  H   H3101     1.0  0.73509  0.05872  0.41383  1.0000
  H   H3102     1.0  0.82435  0.08355  0.11351  1.0000
  H   H3103     1.0  0.71170  0.08338  0.13669  1.0000
  H   H3104     1.0  0.72856  0.09274  0.09928  1.0000
  H   H3105     1.0  0.79260  0.08672  0.20648  1.0000
  H   H3106     1.0  0.89272  0.24078  0.44734  1.0000
  H   H3107     1.0  0.88097  0.17667  0.23967  1.0000
  C   C1775     1.0  0.71765  0.03254  0.13560  1.0000
  H   H3108     1.0  0.90325  0.14553  0.10591  1.0000
  H   H3109     1.0  0.76903  0.09648  0.07555  1.0000
  C   C1776     1.0  0.74232  0.08904  0.09947  1.0000
  H   H3110     1.0  0.71760  0.04846  0.04412  1.0000
  H   H3111     1.0  0.82316  0.17558  0.40100  1.0000
  C   C1777     1.0  0.78556  0.01299  0.00807  1.0000
  H   H3112     1.0  0.79030  0.00480  0.99278  1.0000
  H   H3113     1.0  0.90296  0.23045  0.21290  1.0000
  H   H3114     1.0  0.79386  0.02315  0.45249  1.0000
  H   H3115     1.0  0.81640  0.00965  0.16636  1.0000
  S   S406      1.0  0.67706  0.04829  0.23450  1.0000
  H   H3116     1.0  0.70780  0.07096  0.45267  1.0000
  C   C1778     1.0  0.82042  0.02229  0.15347  1.0000
  H   H3117     1.0  0.85972  0.14379  0.45178  1.0000
  H   H3118     1.0  0.80710  0.01094  0.08101  1.0000
  H   H3119     1.0  0.95649  0.21788  0.21996  1.0000
  C   C1779     1.0  0.83433  0.18740  0.39223  1.0000
  H   H3120     1.0  0.92817  0.20567  0.37923  1.0000
  C   C1780     1.0  0.75183  0.09240  0.12673  1.0000
  H   H3121     1.0  0.89333  0.19515  0.39776  1.0000
  C   C1781     1.0  0.79925  0.03183  0.00783  1.0000
  C   C1782     1.0  0.67227  0.05073  0.07860  1.0000
  C   C1783     1.0  0.82046  0.05403  0.14863  1.0000
  H   H3122     1.0  0.84693  0.15812  0.40243  1.0000
  Fe  Fe199     1.0  0.68008  0.07807  0.23002  1.0000
  H   H3123     1.0  0.70873  0.03641  0.07532  1.0000
  H   H3124     1.0  0.94042  0.23150  0.41684  1.0000
  C   C1784     1.0  0.84817  0.01172  0.13415  1.0000
  H   H3125     1.0  0.86846  0.17703  0.00552  1.0000
  C   C1785     1.0  0.86075  0.15829  0.45369  1.0000
  H   H3126     1.0  0.82231  0.05092  0.12727  1.0000
  H   H3127     1.0  0.72955  0.11506  0.17178  1.0000
  H   H3128     1.0  0.90264  0.22223  0.44734  1.0000
  C   C1786     1.0  0.87196  0.21785  0.48394  1.0000
  H   H3129     1.0  0.95114  0.24366  0.45765  1.0000
  H   H3130     1.0  0.77954  0.09449  0.01461  1.0000
  H   H3131     1.0  0.94418  0.19256  0.38938  1.0000
  C   C1787     1.0  0.81964  0.03902  0.19383  1.0000
  C   C1788     1.0  0.71674  0.02005  0.04456  1.0000
  C   C1789     1.0  0.85921  0.16966  0.39566  1.0000
  H   H3132     1.0  0.66859  0.06425  0.31470  1.0000
  H   H3133     1.0  0.80987  0.09482  0.13239  1.0000
  C   C1790     1.0  0.67354  0.06239  0.09975  1.0000
  H   H3134     1.0  0.93775  0.23164  0.26777  1.0000
  H   H3135     1.0  0.69439  0.10632  0.17244  1.0000
  H   H3136     1.0  0.73370  0.00949  0.07259  1.0000
  H   H3137     1.0  0.83503  0.06125  0.15479  1.0000
  H   H3138     1.0  0.71937  0.09244  0.40950  1.0000
  N   N97       1.0  0.81278  0.03679  0.16568  1.0000
  C   C1791     1.0  0.79121  0.03074  0.16513  1.0000
  C   C1792     1.0  0.81826  0.05166  0.23974  1.0000
  H   H3139     1.0  0.78683  0.02949  0.14399  1.0000
  H   H3140     1.0  0.79415  0.03919  0.02385  1.0000
  C   C1793     1.0  0.87813  0.17001  0.43662  1.0000
  H   H3141     1.0  0.75454  0.01938  0.19006  1.0000
  C   C1794     1.0  0.93027  0.23896  0.40958  1.0000
  H   H3142     1.0  0.81344  0.06187  0.25119  1.0000
  H   H3143     1.0  0.84198  0.01023  0.11404  1.0000
  H   H3144     1.0  0.92156  0.23844  0.13722  1.0000
  N   N98       1.0  0.92238  0.24714  0.45786  1.0000
  Fe  Fe200     1.0  0.96907  0.24571  0.31939  1.0000
  C   C1795     1.0  0.86265  0.16217  0.48338  1.0000
  H   H3145     1.0  0.78459  0.04095  0.17326  1.0000
  H   H3146     1.0  0.93271  0.22322  0.46210  1.0000
  H   H3147     1.0  0.87503  0.20626  0.23013  1.0000
  C   C1796     1.0  0.90163  0.23983  0.22882  1.0000
  H   H3148     1.0  0.78520  0.01267  0.20156  1.0000
  S   S407      1.0  0.76761  0.00798  0.09940  1.0000
  H   H3149     1.0  0.74821  0.09766  0.05755  1.0000
  H   H3150     1.0  0.71932  0.01232  0.41520  1.0000
  C   C1797     1.0  0.85402  0.18739  0.40220  1.0000
  S   S408      1.0  0.81059  0.14096  0.98972  1.0000
  H   H3151     1.0  0.83176  0.09199  0.14576  1.0000
  H   H3152     1.0  0.81382  0.01881  0.13389  1.0000
  C   C1798     1.0  0.80181  0.07207  0.99803  1.0000
  H   H3153     1.0  0.79516  0.06231  0.13613  1.0000
  H   H3154     1.0  0.73409  0.04220  0.06641  1.0000
  H   H3155     1.0  0.73520  0.05734  0.17199  1.0000
  C   C1799     1.0  0.93681  0.23756  0.46768  1.0000
  H   H3156     1.0  0.83064  0.19986  0.39813  1.0000
  H   H3157     1.0  0.70394  0.02501  0.12733  1.0000
  H   H3158     1.0  0.89103  0.16681  0.44476  1.0000
  H   H3159     1.0  0.78037  0.10403  0.20928  1.0000
  C   C1800     1.0  0.79918  0.01561  0.46857  1.0000
  H   H3160     1.0  0.67761  0.07681  0.09557  1.0000
  H   H3161     1.0  0.81147  0.03813  0.24927  1.0000
  H   H3162     1.0  0.82458  0.07559  0.47323  1.0000
  C   C1801     1.0  0.77983  0.06882  0.99771  1.0000
  H   H3163     1.0  0.69304  0.03573  0.35733  1.0000
  N   N99       1.0  0.87757  0.16741  0.40686  1.0000
  C   C1802     1.0  0.87884  0.14852  0.40196  1.0000
  C   C1803     1.0  0.91431  0.18025  0.40097  1.0000
  H   H3164     1.0  0.75711  0.10722  0.12895  1.0000
  H   H3165     1.0  0.92900  0.18578  0.36179  1.0000
  H   H3166     1.0  0.89311  0.18105  0.37097  1.0000
  C   C1804     1.0  0.88236  0.14442  0.37240  1.0000
  H   H3167     1.0  0.74849  0.05953  0.14109  1.0000
  C   C1805     1.0  0.93777  0.22816  0.24653  1.0000
  H   H3168     1.0  0.88180  0.15359  0.24150  1.0000
  H   H3169     1.0  0.71407  0.04982  0.45404  1.0000
  C   C1806     1.0  0.88447  0.12530  0.37018  1.0000
  C   C1807     1.0  0.72433  0.06628  0.41785  1.0000
  H   H3170     1.0  0.86533  0.13852  0.40905  1.0000
  H   H3171     1.0  0.89004  0.14499  0.41409  1.0000
  H   H3172     1.0  0.71109  0.05980  0.40765  1.0000
  H   H3173     1.0  0.73990  0.07469  0.09471  1.0000
  H   H3174     1.0  0.74173  0.08457  0.19407  1.0000
  H   H3175     1.0  0.85976  0.16918  0.37341  1.0000
  H   H3176     1.0  0.77612  0.07581  0.03899  1.0000
  H   H3177     1.0  0.91722  0.18521  0.42141  1.0000
  H   H3178     1.0  0.91586  0.16634  0.40076  1.0000
  H   H3179     1.0  0.93654  0.23909  0.20720  1.0000
  H   H3180     1.0  0.87016  0.14564  0.36040  1.0000
  H   H3181     1.0  0.89564  0.15367  0.36330  1.0000
  H   H3182     1.0  0.83440  0.18713  0.37008  1.0000
  H   H3183     1.0  0.84712  0.16084  0.44747  1.0000
  H   H3184     1.0  0.83552  0.04375  0.19350  1.0000
  H   H3185     1.0  0.71544  0.05780  0.11846  1.0000
  C   C1808     1.0  0.81253  0.05261  0.21068  1.0000
  H   H3186     1.0  0.71039  0.02946  0.37827  1.0000
  S   S409      1.0  0.67764  0.05993  0.04553  1.0000
  H   H3187     1.0  0.88573  0.12234  0.34873  1.0000
  H   H3188     1.0  0.89750  0.12391  0.38015  1.0000
  H   H3189     1.0  0.87180  0.11524  0.37949  1.0000
  C   C1809     1.0  0.77840  0.08955  0.20556  1.0000
  C   C1810     1.0  0.73617  0.06316  0.15106  1.0000
  H   H3190     1.0  0.78082  0.09327  0.16287  1.0000
  H   H3191     1.0  0.90762  0.13864  0.13964  1.0000
  H   H3192     1.0  0.91629  0.22915  0.40677  1.0000
  H   H3193     1.0  0.83667  0.18293  0.10282  1.0000
  H   H3194     1.0  0.94481  0.23474  0.14208  1.0000
  C   C1811     1.0  0.75077  0.08996  0.17560  1.0000
  H   H3195     1.0  0.83277  0.18307  0.13860  1.0000
  H   H3196     1.0  0.86515  0.07644  0.01227  1.0000
  H   H3197     1.0  0.83020  0.11061  0.47259  1.0000
  C   C1812     1.0  0.84250  0.02677  0.14863  1.0000
  H   H3198     1.0  0.83959  0.09104  0.99961  1.0000
  H   H3199     1.0  0.75494  0.14726  0.37586  1.0000
  C   C1813     1.0  0.87240  0.21524  0.24575  1.0000
  H   H3200     1.0  0.87003  0.20716  0.46921  1.0000
  C   C1814     1.0  0.92981  0.19182  0.38169  1.0000
  H   H3201     1.0  0.86539  0.20669  0.26347  1.0000
  C   C1815     1.0  0.89409  0.18135  0.39314  1.0000
  C   C1816     1.0  0.81924  0.08557  0.13399  1.0000
  C   C1817     1.0  0.77277  0.07985  0.01856  1.0000
  C   C1818     1.0  0.75529  0.10022  0.07693  1.0000
  H   H3202     1.0  0.76333  0.02073  0.46214  1.0000
  H   H3203     1.0  0.95622  0.21077  0.25479  1.0000
  H   H3204     1.0  0.81608  0.02576  0.20515  1.0000
  H   H3205     1.0  0.86241  0.22284  0.23826  1.0000
  C   C1819     1.0  0.71930  0.06434  0.44789  1.0000
  C   C1820     1.0  0.92796  0.25357  0.42909  1.0000
  C   C1821     1.0  0.95596  0.22224  0.24082  1.0000
  H   H3206     1.0  0.67872  0.07522  0.35954  1.0000
  H   H3207     1.0  0.88732  0.23670  0.26910  1.0000
  H   H3208     1.0  0.69479  0.10683  0.13616  1.0000
  C   C1822     1.0  0.66725  0.03211  0.08426  1.0000
  H   H3209     1.0  0.72744  0.02260  0.02759  1.0000
  C   C1823     1.0  0.71950  0.03783  0.05856  1.0000
  H   H3210     1.0  0.70419  0.12721  0.15356  1.0000
  H   H3211     1.0  0.80545  0.06937  0.01896  1.0000
  C   C1824     1.0  0.78127  0.01258  0.18031  1.0000
  H   H3212     1.0  0.70217  0.01665  0.03659  1.0000
  H   H3213     1.0  0.75702  0.07746  0.01773  1.0000
  C   C1825     1.0  0.77020  0.08520  0.17807  1.0000
  H   H3214     1.0  0.83406  0.05458  0.24079  1.0000
  H   H3215     1.0  0.86399  0.01501  0.13145  1.0000
  H   H3216     1.0  0.79676  0.04999  0.21097  1.0000
  H   H3217     1.0  0.85354  0.18929  0.42403  1.0000
  N   N100      1.0  0.73976  0.08349  0.15107  1.0000
  H   H3218     1.0  0.83129  0.05813  0.00773  1.0000
  H   H3219     1.0  0.81930  0.06655  0.20269  1.0000
  H   H3220     1.0  0.89994  0.22017  0.26305  1.0000
  C   C1826     1.0  0.89113  0.22819  0.25359  1.0000
  N   N101      1.0  0.74122  0.08995  0.38034  1.0000
  C   C1827     1.0  0.74585  0.10998  0.37385  1.0000
  C   C1828     1.0  0.72677  0.08032  0.36107  1.0000
  C   C1829     1.0  0.73174  0.08640  0.40811  1.0000
  C   C1830     1.0  0.75878  0.08287  0.37993  1.0000
  C   C1831     1.0  0.77549  0.09219  0.35972  1.0000
  C   C1832     1.0  0.75755  0.12213  0.39491  1.0000
  C   C1833     1.0  0.73336  0.08174  0.33117  1.0000
  C   C1834     1.0  0.71655  0.07382  0.31363  1.0000
  C   C1835     1.0  0.79025  0.08128  0.35799  1.0000
  C   C1836     1.0  0.76625  0.14130  0.38349  1.0000
  H   H3221     1.0  0.73243  0.11425  0.37149  1.0000
  H   H3222     1.0  0.75363  0.11361  0.35416  1.0000
  H   H3223     1.0  0.72214  0.06563  0.36619  1.0000
  H   H3224     1.0  0.71360  0.08515  0.36281  1.0000
  H   H3225     1.0  0.74189  0.09303  0.42323  1.0000
  H   H3226     1.0  0.76525  0.08388  0.39994  1.0000
  H   H3227     1.0  0.75462  0.06821  0.37617  1.0000
  H   H3228     1.0  0.78295  0.10580  0.36623  1.0000
  H   H3229     1.0  0.77062  0.09391  0.33931  1.0000
  H   H3230     1.0  0.74804  0.12298  0.41239  1.0000
  H   H3231     1.0  0.76925  0.11666  0.40224  1.0000
  H   H3232     1.0  0.73969  0.09585  0.32393  1.0000
  H   H3233     1.0  0.74402  0.07392  0.32806  1.0000
  H   H3234     1.0  0.70563  0.08152  0.31527  1.0000
  H   H3235     1.0  0.72169  0.07471  0.29233  1.0000
  H   H3236     1.0  0.70979  0.05945  0.31956  1.0000
  H   H3237     1.0  0.80218  0.08822  0.34374  1.0000
  H   H3238     1.0  0.79630  0.08001  0.37788  1.0000
  H   H3239     1.0  0.78370  0.06766  0.35072  1.0000
  H   H3240     1.0  0.66668  0.02302  0.06819  1.0000
  H   H3241     1.0  0.77670  0.14129  0.36684  1.0000
  C   C1837     1.0  0.93798  0.24749  0.38208  1.0000
  N   N102      1.0  0.88998  0.18462  0.15591  1.0000
  C   C1838     1.0  0.86868  0.18147  0.15329  1.0000
  C   C1839     1.0  0.89415  0.18330  0.18523  1.0000
  C   C1840     1.0  0.89952  0.20372  0.14554  1.0000
  C   C1841     1.0  0.89819  0.17186  0.13999  1.0000
  C   C1842     1.0  0.88512  0.15254  0.13704  1.0000
  C   C1843     1.0  0.86241  0.18592  0.12510  1.0000
  C   C1844     1.0  0.92106  0.21102  0.15123  1.0000
  C   C1845     1.0  0.88445  0.16534  0.20098  1.0000
  C   C1846     1.0  0.88800  0.16690  0.23092  1.0000
  C   C1847     1.0  0.89643  0.14012  0.12577  1.0000
  C   C1848     1.0  0.84091  0.17840  0.12246  1.0000
  C   C1849     1.0  0.93022  0.22862  0.13512  1.0000
  H   H3242     1.0  0.86298  0.18973  0.16759  1.0000
  H   H3243     1.0  0.86081  0.16734  0.15903  1.0000
  H   H3244     1.0  0.90974  0.18530  0.18779  1.0000
  H   H3245     1.0  0.89015  0.19432  0.19580  1.0000
  H   H3246     1.0  0.89201  0.21329  0.15406  1.0000
  H   H3247     1.0  0.89837  0.20500  0.12339  1.0000
  H   H3248     1.0  0.90229  0.17735  0.11905  1.0000
  H   H3249     1.0  0.91180  0.17067  0.14854  1.0000
  H   H3250     1.0  0.87365  0.15288  0.12304  1.0000
  H   H3251     1.0  0.87809  0.14631  0.15621  1.0000
  H   H3252     1.0  0.86586  0.20075  0.12119  1.0000
  H   H3253     1.0  0.86983  0.18019  0.10943  1.0000
  H   H3254     1.0  0.92913  0.20111  0.14611  1.0000
  H   H3255     1.0  0.92275  0.21393  0.17274  1.0000
  H   H3256     1.0  0.86874  0.16127  0.19899  1.0000
  H   H3257     1.0  0.89065  0.15451  0.19406  1.0000
  H   H3258     1.0  0.90356  0.17113  0.23446  1.0000
  H   H3259     1.0  0.73068  0.11641  0.13564  1.0000
  C   C1850     1.0  0.71923  0.00487  0.06431  1.0000
  H   H3260     1.0  0.77384  0.14983  0.39928  1.0000
  H   H3261     1.0  0.80336  0.07052  0.16783  1.0000
  H   H3262     1.0  0.93972  0.23696  0.36845  1.0000
  H   H3263     1.0  0.92552  0.21641  0.24331  1.0000
  C   C1851     1.0  0.90255  0.23447  0.45838  1.0000
  H   H3264     1.0  0.87984  0.18439  0.44093  1.0000
  H   H3265     1.0  0.68885  0.03278  0.39319  1.0000
  H   H3266     1.0  0.86455  0.19920  0.39232  1.0000
  H   H3267     1.0  0.73206  0.07038  0.45947  1.0000
  C   C1852     1.0  0.66943  0.05553  0.12633  1.0000
  H   H3268     1.0  0.91374  0.25202  0.17848  1.0000
  H   H3269     1.0  0.96886  0.23343  0.24392  1.0000
  H   H3270     1.0  0.69404  0.01280  0.44953  1.0000
  H   H3271     1.0  0.80813  0.08683  0.99432  1.0000
  H   H3272     1.0  0.76541  0.03992  0.48266  1.0000
  H   H3273     1.0  0.81488  0.01891  0.46434  1.0000
  S   S410      1.0  0.91286  0.25135  0.06998  1.0000
  C   C1853     1.0  0.68442  0.00789  0.37288  1.0000
  H   H3274     1.0  0.77226  0.05447  0.00237  1.0000
  H   H3275     1.0  0.86393  0.22764  0.47763  1.0000
  N   N103      1.0  0.92090  0.25288  0.23289  1.0000
  H   H3276     1.0  0.91977  0.24921  0.27623  1.0000
  H   H3277     1.0  0.79686  0.04840  0.47783  1.0000
  H   H3278     1.0  0.89137  0.24716  0.22117  1.0000
  S   S411      1.0  0.66981  0.05899  0.41290  1.0000
  H   H3279     1.0  0.77084  0.01380  0.00401  1.0000
  C   C1854     1.0  0.86491  0.08248  0.99181  1.0000
  H   H3280     1.0  0.70900  0.00448  0.08137  1.0000
  C   C1855     1.0  0.66863  0.06220  0.35799  1.0000
  Fe  Fe201     1.0  0.66667  0.04297  0.01050  1.0000
  H   H3281     1.0  0.88535  0.16672  0.98997  1.0000
  H   H3282     1.0  0.87415  0.09653  0.99117  1.0000
  H   H3283     1.0  0.69598  0.00749  0.33232  1.0000
  H   H3284     1.0  0.78530  0.00615  0.02809  1.0000
  S   S412      1.0  0.67565  0.03764  0.48435  1.0000
  H   H3285     1.0  0.73194  0.02486  0.47705  1.0000
  H   H3286     1.0  0.66949  0.00717  0.36779  1.0000
  C   C1856     1.0  0.76149  0.02499  0.48278  1.0000
  C   C1857     1.0  0.87157  0.17020  0.98739  1.0000
  C   C1858     1.0  0.83098  0.06321  0.98669  1.0000
  H   H3287     1.0  0.85989  0.15765  0.98582  1.0000
  C   C1859     1.0  0.70979  0.04419  0.53852  1.0000
  C   C1860     1.0  0.80032  0.04178  0.98002  1.0000
  H   H3288     1.0  0.73663  0.01924  0.89399  1.0000
  C   C1861     1.0  0.88551  0.17433  0.88899  1.0000
  H   H3289     1.0  0.77921  0.08440  0.83618  1.0000
  C   C1862     1.0  0.74879  0.14103  0.67502  1.0000
  S   S413      1.0  0.71092  0.08671  0.72410  1.0000
  H   H3290     1.0  0.80476  0.08508  0.64999  1.0000
  Fe  Fe202     1.0  0.82534  0.13243  0.83592  1.0000
  S   S414      1.0  0.81270  0.15595  0.83607  1.0000
  S   S415      1.0  0.83074  0.11793  0.87410  1.0000
  Fe  Fe203     1.0  0.82797  0.13346  0.77439  1.0000
  S   S416      1.0  0.81562  0.15721  0.77067  1.0000
  S   S417      1.0  0.83681  0.12003  0.73848  1.0000
  Fe  Fe204     1.0  0.83525  0.16828  0.80375  1.0000
  S   S418      1.0  0.85249  0.19776  0.80358  1.0000
  Fe  Fe205     1.0  0.79462  0.14222  0.80315  1.0000
  S   S419      1.0  0.76234  0.13752  0.80597  1.0000
  S   S420      1.0  0.84892  0.14540  0.80540  1.0000
  S   S421      1.0  0.80595  0.11789  0.80499  1.0000
  H   H3291     1.0  0.70943  0.02087  0.66132  1.0000
  H   H3292     1.0  0.75972  0.01937  0.85336  1.0000
  H   H3293     1.0  0.76418  0.16024  0.70274  1.0000
  H   H3294     1.0  0.76336  0.14994  0.59655  1.0000
  H   H3295     1.0  0.72414  0.02717  0.55928  1.0000
  S   S422      1.0  0.94240  0.22354  0.82027  1.0000
  C   C1863     1.0  0.66737  0.05031  0.88067  1.0000
  S   S423      1.0  0.90486  0.24750  0.55842  1.0000
  H   H3296     1.0  0.83225  0.04697  0.64289  1.0000
  Fe  Fe206     1.0  0.82017  0.12854  0.58825  1.0000
  S   S424      1.0  0.84772  0.12087  0.59056  1.0000
  S   S425      1.0  0.80458  0.13394  0.62553  1.0000
  Fe  Fe207     1.0  0.82090  0.12737  0.52717  1.0000
  S   S426      1.0  0.84850  0.11938  0.52588  1.0000
  H   H3297     1.0  0.68016  0.01684  0.55877  1.0000
  Fe  Fe208     1.0  0.83490  0.10030  0.56081  1.0000
  S   S427      1.0  0.83631  0.07118  0.56711  1.0000
  Fe  Fe209     1.0  0.85788  0.14097  0.55587  1.0000
  S   S428      1.0  0.88721  0.16152  0.55552  1.0000
  S   S429      1.0  0.80677  0.10712  0.56018  1.0000
  S   S430      1.0  0.83091  0.14980  0.55535  1.0000
  C   C1864     1.0  0.78681  0.02122  0.59238  1.0000
  C   C1865     1.0  0.78277  0.03719  0.58287  1.0000
  C   C1866     1.0  0.79770  0.05263  0.57501  1.0000
  C   C1867     1.0  0.81684  0.05229  0.57674  1.0000
  C   C1868     1.0  0.82081  0.03630  0.58601  1.0000
  C   C1869     1.0  0.80594  0.02093  0.59383  1.0000
  H   H3298     1.0  0.76805  0.03764  0.58158  1.0000
  H   H3299     1.0  0.79443  0.06473  0.56739  1.0000
  H   H3300     1.0  0.83553  0.03582  0.58732  1.0000
  C   C1870     1.0  0.75233  0.12239  0.61298  1.0000
  C   C1871     1.0  0.90015  0.22357  0.55810  1.0000
  C   C1872     1.0  0.88120  0.21299  0.55637  1.0000
  C   C1873     1.0  0.87696  0.19405  0.55521  1.0000
  C   C1874     1.0  0.89167  0.18540  0.55591  1.0000
  C   C1875     1.0  0.91060  0.19599  0.55760  1.0000
  C   C1876     1.0  0.91481  0.21489  0.55892  1.0000
  H   H3301     1.0  0.86970  0.21951  0.55575  1.0000
  H   H3302     1.0  0.86231  0.18616  0.55387  1.0000
  H   H3303     1.0  0.92212  0.18950  0.55812  1.0000
  H   H3304     1.0  0.92943  0.22274  0.56049  1.0000
  H   H3305     1.0  0.76744  0.11992  0.96336  1.0000
  C   C1877     1.0  0.85720  0.06634  0.65507  1.0000
  C   C1878     1.0  0.85081  0.17075  0.62912  1.0000
  C   C1879     1.0  0.77368  0.01723  0.50261  1.0000
  H   H3306     1.0  0.69200  0.01889  0.87176  1.0000
  C   C1880     1.0  0.76739  0.10662  0.95540  1.0000
  H   H3307     1.0  0.89126  0.13910  0.66931  1.0000
  H   H3308     1.0  0.71211  0.09089  0.60920  1.0000
  C   C1881     1.0  0.87741  0.20464  0.80888  1.0000
  C   C1882     1.0  0.88860  0.19239  0.80916  1.0000
  C   C1883     1.0  0.90842  0.19839  0.81284  1.0000
  C   C1884     1.0  0.91733  0.21670  0.81618  1.0000
  C   C1885     1.0  0.90613  0.22894  0.81618  1.0000
  C   C1886     1.0  0.88628  0.22293  0.81249  1.0000
  H   H3309     1.0  0.88203  0.17832  0.80623  1.0000
  H   H3310     1.0  0.91695  0.18880  0.81290  1.0000
  H   H3311     1.0  0.91274  0.24302  0.81915  1.0000
  H   H3312     1.0  0.87773  0.23250  0.81249  1.0000
  C   C1887     1.0  0.82656  0.12575  0.90591  1.0000
  C   C1888     1.0  0.81591  0.13827  0.90908  1.0000
  C   C1889     1.0  0.81149  0.14315  0.93485  1.0000
  C   C1890     1.0  0.81792  0.13574  0.95766  1.0000
  C   C1891     1.0  0.82921  0.12375  0.95444  1.0000
  C   C1892     1.0  0.83344  0.11872  0.92865  1.0000
  H   H3313     1.0  0.81064  0.14377  0.89172  1.0000
  H   H3314     1.0  0.80281  0.15249  0.93719  1.0000
  H   H3315     1.0  0.84941  0.16035  0.61393  1.0000
  H   H3316     1.0  0.84194  0.10923  0.92625  1.0000
  C   C1893     1.0  0.82765  0.12403  0.70733  1.0000
  C   C1894     1.0  0.81360  0.13335  0.70505  1.0000
  C   C1895     1.0  0.80670  0.13636  0.67982  1.0000
  C   C1896     1.0  0.81360  0.12990  0.65681  1.0000
  C   C1897     1.0  0.82741  0.12033  0.65918  1.0000
  C   C1898     1.0  0.83450  0.11751  0.68430  1.0000
  H   H3317     1.0  0.80797  0.13817  0.72266  1.0000
  H   H3318     1.0  0.79611  0.14386  0.67808  1.0000
  H   H3319     1.0  0.83247  0.11485  0.64183  1.0000
  H   H3320     1.0  0.84534  0.11028  0.68597  1.0000
  C   C1899     1.0  0.72488  0.09937  0.74870  1.0000
  C   C1900     1.0  0.71659  0.10516  0.77114  1.0000
  C   C1901     1.0  0.72824  0.11662  0.78886  1.0000
  C   C1902     1.0  0.74822  0.12216  0.78446  1.0000
  C   C1903     1.0  0.75652  0.11584  0.76256  1.0000
  C   C1904     1.0  0.74488  0.10460  0.74469  1.0000
  H   H3321     1.0  0.70121  0.10128  0.77438  1.0000
  H   H3322     1.0  0.72172  0.12148  0.80575  1.0000
  H   H3323     1.0  0.77189  0.12005  0.75895  1.0000
  H   H3324     1.0  0.75141  0.10025  0.72736  1.0000
  C   C1905     1.0  0.70982  0.06484  0.62781  1.0000
  H   H3325     1.0  0.75011  0.10871  0.60521  1.0000
  H   H3326     1.0  0.78123  0.10387  0.96022  1.0000
  H   H3327     1.0  0.82368  0.17526  0.61838  1.0000
  C   C1906     1.0  0.91573  0.23136  0.89309  1.0000
  H   H3328     1.0  0.86500  0.14502  0.64226  1.0000
  H   H3329     1.0  0.76032  0.14645  0.65940  1.0000
  H   H3330     1.0  0.90016  0.21753  0.49512  1.0000
  H   H3331     1.0  0.77585  0.10117  0.87582  1.0000
  H   H3332     1.0  0.94268  0.20284  0.63793  1.0000
  H   H3333     1.0  0.79539  0.02539  0.70086  1.0000
  H   H3334     1.0  0.87844  0.15267  0.72364  1.0000
  H   H3335     1.0  0.70924  0.02685  0.91331  1.0000
  C   C1907     1.0  0.66909  0.06129  0.85726  1.0000
  N   N104      1.0  0.80213  0.05875  0.66912  1.0000
  C   C1908     1.0  0.79209  0.06082  0.69523  1.0000
  H   H3336     1.0  0.67464  0.07572  0.85807  1.0000
  H   H3337     1.0  0.92118  0.23063  0.68309  1.0000
  C   C1909     1.0  0.79569  0.08033  0.70478  1.0000
  H   H3338     1.0  0.88346  0.15524  0.84259  1.0000
  H   H3339     1.0  0.80732  0.03458  0.96555  1.0000
  H   H3340     1.0  0.76862  0.07130  0.66059  1.0000
  C   C1910     1.0  0.78396  0.08089  0.73048  1.0000
  H   H3341     1.0  0.79667  0.05303  0.71172  1.0000
  H   H3342     1.0  0.77638  0.05486  0.69442  1.0000
  H   H3343     1.0  0.69772  0.04166  0.84319  1.0000
  H   H3344     1.0  0.71530  0.02050  0.61281  1.0000
  H   H3345     1.0  0.80403  0.06788  0.62749  1.0000
  C   C1911     1.0  0.79774  0.07064  0.64692  1.0000
  H   H3346     1.0  0.81094  0.08573  0.70934  1.0000
  H   H3347     1.0  0.79186  0.08948  0.68957  1.0000
  H   H3348     1.0  0.82708  0.05716  0.69086  1.0000
  H   H3349     1.0  0.86391  0.17657  0.48672  1.0000
  C   C1912     1.0  0.69954  0.00901  0.86504  1.0000
  H   H3350     1.0  0.77561  0.07305  0.97804  1.0000
  C   C1913     1.0  0.68998  0.11152  0.88552  1.0000
  H   H3351     1.0  0.78693  0.09502  0.73679  1.0000
  H   H3352     1.0  0.76841  0.07585  0.72722  1.0000
  H   H3353     1.0  0.78794  0.07265  0.74688  1.0000
  C   C1914     1.0  0.69723  0.01506  0.64861  1.0000
  H   H3354     1.0  0.87531  0.15849  0.49134  1.0000
  C   C1915     1.0  0.93381  0.20747  0.62297  1.0000
  H   H3355     1.0  0.73453  0.11454  0.69257  1.0000
  H   H3356     1.0  0.70370  0.04660  0.79423  1.0000
  C   C1916     1.0  0.76628  0.10172  0.85927  1.0000
  H   H3357     1.0  0.72396  0.06391  0.61983  1.0000
  H   H3358     1.0  0.70671  0.05778  0.64787  1.0000
  H   H3359     1.0  0.69873  0.05794  0.61411  1.0000
  N   N105      1.0  0.91393  0.24513  0.73295  1.0000
  C   C1917     1.0  0.89925  0.22704  0.73523  1.0000
  C   C1918     1.0  0.93272  0.24288  0.74268  1.0000
  C   C1919     1.0  0.71273  0.05580  0.80817  1.0000
  N   N106      1.0  0.72038  0.01794  0.85798  1.0000
  C   C1920     1.0  0.90442  0.21209  0.88803  1.0000
  C   C1921     1.0  0.87819  0.22756  0.73186  1.0000
  C   C1922     1.0  0.94195  0.23018  0.72693  1.0000
  C   C1923     1.0  0.88146  0.14676  0.86144  1.0000
  H   H3360     1.0  0.94553  0.21116  0.50215  1.0000
  C   C1924     1.0  0.86516  0.20893  0.72713  1.0000
  H   H3361     1.0  0.89973  0.22033  0.75527  1.0000
  H   H3362     1.0  0.90256  0.21763  0.72076  1.0000
  H   H3363     1.0  0.95653  0.22655  0.52690  1.0000
  H   H3364     1.0  0.93103  0.23811  0.76419  1.0000
  H   H3365     1.0  0.72750  0.06083  0.79927  1.0000
  H   H3366     1.0  0.89394  0.23842  0.50020  1.0000
  H   H3367     1.0  0.72115  0.05621  0.84876  1.0000
  H   H3368     1.0  0.77333  0.11362  0.84596  1.0000
  H   H3369     1.0  0.89791  0.23407  0.68004  1.0000
  H   H3370     1.0  0.86189  0.08065  0.66049  1.0000
  H   H3371     1.0  0.87262  0.23225  0.75045  1.0000
  H   H3372     1.0  0.87704  0.23688  0.71494  1.0000
  H   H3373     1.0  0.93195  0.21667  0.72533  1.0000
  H   H3374     1.0  0.94689  0.23625  0.70664  1.0000
  C   C1925     1.0  0.75715  0.14558  0.70240  1.0000
  H   H3375     1.0  0.87191  0.13331  0.85763  1.0000
  H   H3376     1.0  0.69603  0.04798  0.53946  1.0000
  Fe  Fe210     1.0  0.96083  0.25258  0.82097  1.0000
  H   H3377     1.0  0.87091  0.07475  0.97712  1.0000
  H   H3378     1.0  0.85013  0.20972  0.72599  1.0000
  H   H3379     1.0  0.86940  0.20387  0.70805  1.0000
  H   H3380     1.0  0.86577  0.19935  0.74403  1.0000
  S   S431      1.0  0.68566  0.03707  0.97758  1.0000
  H   H3381     1.0  0.70670  0.06752  0.81057  1.0000
  C   C1926     1.0  0.81154  0.06952  0.95038  1.0000
  H   H3382     1.0  0.73750  0.02194  0.51150  1.0000
  H   H3383     1.0  0.76595  0.09358  0.91814  1.0000
  C   C1927     1.0  0.76073  0.13459  0.88159  1.0000
  H   H3384     1.0  0.84523  0.08903  0.96476  1.0000
  C   C1928     1.0  0.74622  0.10308  0.86911  1.0000
  C   C1929     1.0  0.79467  0.06151  0.93221  1.0000
  H   H3385     1.0  0.72581  0.12847  0.86598  1.0000
  H   H3386     1.0  0.76353  0.12428  0.62791  1.0000
  H   H3387     1.0  0.68958  0.02551  0.64433  1.0000
  H   H3388     1.0  0.89552  0.14498  0.86726  1.0000
  H   H3389     1.0  0.82444  0.06798  0.93899  1.0000
  H   H3390     1.0  0.74864  0.15394  0.90323  1.0000
  H   H3391     1.0  0.73805  0.08957  0.87757  1.0000
  C   C1930     1.0  0.67437  0.12070  0.65412  1.0000
  H   H3392     1.0  0.77816  0.17805  0.90473  1.0000
  H   H3393     1.0  0.79174  0.16447  0.88917  1.0000
  H   H3394     1.0  0.73698  0.03646  0.82692  1.0000
  H   H3395     1.0  0.83759  0.05461  0.97413  1.0000
  C   C1931     1.0  0.95317  0.22539  0.50543  1.0000
  H   H3396     1.0  0.72310  0.05652  0.93095  1.0000
  C   C1932     1.0  0.73200  0.05083  0.91707  1.0000
  H   H3397     1.0  0.71189  0.03923  0.51838  1.0000
  C   C1933     1.0  0.71897  0.03724  0.89970  1.0000
  C   C1934     1.0  0.79527  0.03938  0.66154  1.0000
  C   C1935     1.0  0.70757  0.11691  0.66211  1.0000
  H   H3398     1.0  0.73853  0.09204  0.64331  1.0000
  H   H3399     1.0  0.89414  0.11222  0.64656  1.0000
  H   H3400     1.0  0.68974  0.11724  0.86486  1.0000
  H   H3401     1.0  0.81685  0.02783  0.68037  1.0000
  C   C1936     1.0  0.86735  0.16459  0.68959  1.0000
  H   H3402     1.0  0.84799  0.17338  0.90799  1.0000
  C   C1937     1.0  0.72178  0.03013  0.83320  1.0000
  H   H3403     1.0  0.74106  0.04424  0.92911  1.0000
  H   H3404     1.0  0.81335  0.08432  0.95056  1.0000
  C   C1938     1.0  0.89286  0.20258  0.91366  1.0000
  H   H3405     1.0  0.76921  0.05481  0.63610  1.0000
  H   H3406     1.0  0.71526  0.02203  0.81617  1.0000
  H   H3407     1.0  0.90408  0.20119  0.92772  1.0000
  H   H3408     1.0  0.77909  0.09592  0.62642  1.0000
  C   C1939     1.0  0.79659  0.07264  0.90580  1.0000
  C   C1940     1.0  0.72452  0.09443  0.64906  1.0000
  C   C1941     1.0  0.70947  0.08451  0.62968  1.0000
  H   H3409     1.0  0.72073  0.08725  0.66904  1.0000
  H   H3410     1.0  0.69488  0.08441  0.63716  1.0000
  H   H3411     1.0  0.83891  0.19356  0.63533  1.0000
  H   H3412     1.0  0.88034  0.15116  0.61349  1.0000
  C   C1942     1.0  0.90550  0.17983  0.63131  1.0000
  H   H3413     1.0  0.81936  0.01332  0.50929  1.0000
  H   H3414     1.0  0.69956  0.10492  0.67483  1.0000
  C   C1943     1.0  0.83872  0.18326  0.62031  1.0000
  C   C1944     1.0  0.70457  0.00888  0.62260  1.0000
  H   H3415     1.0  0.70974  0.12797  0.67633  1.0000
  H   H3416     1.0  0.75356  0.11482  0.66996  1.0000
  H   H3417     1.0  0.91076  0.20581  0.65141  1.0000
  H   H3418     1.0  0.78063  0.06100  0.94182  1.0000
  N   N107      1.0  0.88553  0.17135  0.64315  1.0000
  C   C1945     1.0  0.74094  0.12035  0.67269  1.0000
  H   H3419     1.0  0.88688  0.12054  0.61558  1.0000
  H   H3420     1.0  0.87689  0.18565  0.60980  1.0000
  C   C1946     1.0  0.88539  0.12064  0.63775  1.0000
  N   N108      1.0  0.72647  0.11430  0.65152  1.0000
  C   C1947     1.0  0.91333  0.24106  0.68117  1.0000
  C   C1948     1.0  0.77383  0.08185  0.62011  1.0000
  H   H3421     1.0  0.90751  0.14508  0.64029  1.0000
  H   H3422     1.0  0.94860  0.25172  0.50317  1.0000
  H   H3423     1.0  0.82836  0.07873  0.67657  1.0000
  C   C1949     1.0  0.89229  0.13988  0.64709  1.0000
  H   H3424     1.0  0.90661  0.17611  0.61007  1.0000
  C   C1950     1.0  0.87997  0.15187  0.63572  1.0000
  C   C1951     1.0  0.87217  0.18127  0.63093  1.0000
  H   H3425     1.0  0.70007  0.13500  0.63199  1.0000
  H   H3426     1.0  0.72262  0.12060  0.60965  1.0000
  H   H3427     1.0  0.79898  0.00515  0.65002  1.0000
  H   H3428     1.0  0.91644  0.24242  0.63766  1.0000
  C   C1952     1.0  0.82343  0.06415  0.67271  1.0000
  H   H3429     1.0  0.85976  0.05758  0.67190  1.0000
  C   C1953     1.0  0.73326  0.12464  0.62525  1.0000
  H   H3430     1.0  0.69149  0.11160  0.62491  1.0000
  C   C1954     1.0  0.69360  0.01255  0.55688  1.0000
  C   C1955     1.0  0.69389  0.12123  0.64115  1.0000
  H   H3431     1.0  0.87018  0.11459  0.64424  1.0000
  H   H3432     1.0  0.92738  0.23384  0.51049  1.0000
  H   H3433     1.0  0.87983  0.17631  0.72638  1.0000
  H   H3434     1.0  0.91620  0.17450  0.64205  1.0000
  H   H3435     1.0  0.84556  0.07602  0.49188  1.0000
  H   H3436     1.0  0.86582  0.16061  0.93636  1.0000
  H   H3437     1.0  0.79686  0.08683  0.90951  1.0000
  H   H3438     1.0  0.84455  0.16390  0.64836  1.0000
  H   H3439     1.0  0.77939  0.03516  0.66122  1.0000
  H   H3440     1.0  0.93820  0.22245  0.62154  1.0000
  H   H3441     1.0  0.78186  0.08029  0.60154  1.0000
  H   H3442     1.0  0.93666  0.20252  0.60309  1.0000
  C   C1956     1.0  0.87723  0.17350  0.93680  1.0000
  H   H3443     1.0  0.85715  0.15966  0.73119  1.0000
  H   H3444     1.0  0.70693  0.09861  0.90928  1.0000
  H   H3445     1.0  0.85723  0.17304  0.68701  1.0000
  C   C1957     1.0  0.91258  0.20075  0.63137  1.0000
  H   H3446     1.0  0.90457  0.20708  0.61712  1.0000
  H   H3447     1.0  0.76792  0.13808  0.70681  1.0000
  H   H3448     1.0  0.73757  0.14821  0.67217  1.0000
  H   H3449     1.0  0.74563  0.14201  0.71841  1.0000
  H   H3450     1.0  0.83458  0.06977  0.63084  1.0000
  H   H3451     1.0  0.89766  0.16773  0.68131  1.0000
  H   H3452     1.0  0.84413  0.19006  0.60055  1.0000
  H   H3453     1.0  0.87285  0.19388  0.64155  1.0000
  H   H3454     1.0  0.89086  0.16971  0.93980  1.0000
  C   C1958     1.0  0.88613  0.17318  0.67308  1.0000
  H   H3455     1.0  0.89014  0.18758  0.67804  1.0000
  H   H3456     1.0  0.73457  0.13923  0.62739  1.0000
  H   H3457     1.0  0.77389  0.17170  0.87064  1.0000
  H   H3458     1.0  0.74274  0.12026  0.93138  1.0000
  H   H3459     1.0  0.86048  0.15082  0.68361  1.0000
  H   H3460     1.0  0.85461  0.19503  0.92118  1.0000
  H   H3461     1.0  0.74356  0.03878  0.87266  1.0000
  C   C1959     1.0  0.87100  0.16331  0.71947  1.0000
  H   H3462     1.0  0.73522  0.09780  0.92173  1.0000
  C   C1960     1.0  0.95957  0.22746  0.74065  1.0000
  C   C1961     1.0  0.77745  0.16709  0.89067  1.0000
  H   H3463     1.0  0.83360  0.20223  0.85613  1.0000
  C   C1962     1.0  0.70816  0.10535  0.88908  1.0000
  C   C1963     1.0  0.80108  0.02527  0.68006  1.0000
  H   H3464     1.0  0.66509  0.12438  0.63885  1.0000
  H   H3465     1.0  0.85864  0.18575  0.96156  1.0000
  H   H3466     1.0  0.97068  0.24047  0.74132  1.0000
  C   C1964     1.0  0.83606  0.06122  0.64854  1.0000
  H   H3467     1.0  0.95573  0.22163  0.76138  1.0000
  C   C1965     1.0  0.84454  0.08257  0.98506  1.0000
  C   C1966     1.0  0.85619  0.19560  0.87851  1.0000
  C   C1967     1.0  0.76545  0.10698  0.92507  1.0000
  C   C1968     1.0  0.73075  0.02823  0.88072  1.0000
  H   H3468     1.0  0.88746  0.18200  0.86943  1.0000
  H   H3469     1.0  0.72421  0.13122  0.90108  1.0000
  H   H3470     1.0  0.78430  0.06685  0.89324  1.0000
  C   C1969     1.0  0.70987  0.02982  0.56038  1.0000
  H   H3471     1.0  0.96690  0.22922  0.49341  1.0000
  C   C1970     1.0  0.77625  0.06859  0.64232  1.0000
  C   C1971     1.0  0.83540  0.19613  0.87601  1.0000
  H   H3472     1.0  0.77123  0.02198  0.52290  1.0000
  H   H3473     1.0  0.89518  0.21270  0.87108  1.0000
  H   H3474     1.0  0.75854  0.13978  0.86122  1.0000
  H   H3475     1.0  0.79467  0.04756  0.92724  1.0000
  H   H3476     1.0  0.77332  0.13364  0.58082  1.0000
  H   H3477     1.0  0.77515  0.13228  0.88015  1.0000
  N   N109      1.0  0.87855  0.18446  0.91072  1.0000
  C   C1972     1.0  0.87256  0.15536  0.88375  1.0000
  H   H3478     1.0  0.67593  0.13039  0.67035  1.0000
  H   H3479     1.0  0.92575  0.23147  0.90947  1.0000
  H   H3480     1.0  0.67722  0.09985  0.88906  1.0000
  H   H3481     1.0  0.80023  0.03786  0.64074  1.0000
  C   C1973     1.0  0.75995  0.13596  0.58957  1.0000
  H   H3482     1.0  0.74934  0.13445  0.57369  1.0000
  H   H3483     1.0  0.85828  0.15622  0.87745  1.0000
  H   H3484     1.0  0.74135  0.06205  0.90439  1.0000
  C   C1974     1.0  0.85888  0.18666  0.90574  1.0000
  H   H3485     1.0  0.85985  0.18806  0.86159  1.0000
  H   H3486     1.0  0.86502  0.20974  0.87677  1.0000
  H   H3487     1.0  0.73858  0.01474  0.94839  1.0000
  S   S432      1.0  0.67398  0.04191  0.73178  1.0000
  C   C1975     1.0  0.76228  0.15014  0.90100  1.0000
  H   H3488     1.0  0.82569  0.18231  0.87791  1.0000
  H   H3489     1.0  0.88381  0.19530  0.96565  1.0000
  N   N110      1.0  0.74534  0.11739  0.88872  1.0000
  H   H3490     1.0  0.83128  0.20438  0.89173  1.0000
  H   H3491     1.0  0.89996  0.17283  0.89364  1.0000
  Fe  Fe211     1.0  0.67946  0.07198  0.72950  1.0000
  H   H3492     1.0  0.66723  0.10695  0.66257  1.0000
  H   H3493     1.0  0.70769  0.03570  0.57972  1.0000
  C   C1976     1.0  0.72625  0.12163  0.88594  1.0000
  H   H3494     1.0  0.87067  0.14612  0.90172  1.0000
  H   H3495     1.0  0.76642  0.14623  0.92107  1.0000
  C   C1977     1.0  0.74633  0.11069  0.91723  1.0000
  C   C1978     1.0  0.80508  0.01408  0.51723  1.0000
  H   H3496     1.0  0.72156  0.05646  0.54140  1.0000
  H   H3497     1.0  0.77803  0.11726  0.91639  1.0000
  H   H3498     1.0  0.80940  0.00891  0.60120  1.0000
  H   H3499     1.0  0.86580  0.21153  0.50367  1.0000
  C   C1979     1.0  0.71273  0.04614  0.83545  1.0000
  N   N111      1.0  0.79490  0.02185  0.49579  1.0000
  H   H3500     1.0  0.73904  0.10539  0.85036  1.0000
  H   H3501     1.0  0.70996  0.04442  0.88882  1.0000
  H   H3502     1.0  0.75789  0.07257  0.85536  1.0000
  C   C1980     1.0  0.75086  0.00946  0.84021  1.0000
  H   H3503     1.0  0.92426  0.23752  0.87464  1.0000
  H   H3504     1.0  0.81001  0.07257  0.89449  1.0000
  S   S433      1.0  0.67427  0.06020  0.91129  1.0000
  H   H3505     1.0  0.88571  0.21215  0.92296  1.0000
  C   C1981     1.0  0.76469  0.08501  0.84300  1.0000
  C   C1982     1.0  0.79313  0.00623  0.67045  1.0000
  C   C1983     1.0  0.80229  0.04217  0.49528  1.0000
  H   H3506     1.0  0.75853  0.07924  0.61550  1.0000
  H   H3507     1.0  0.90590  0.23969  0.89839  1.0000
  H   H3508     1.0  0.91491  0.20469  0.88157  1.0000
  N   N112      1.0  0.81067  0.06159  0.97877  1.0000
  H   H3509     1.0  0.83093  0.04598  0.51198  1.0000
  H   H3510     1.0  0.90374  0.25075  0.77203  1.0000
  C   C1984     1.0  0.82975  0.07064  0.49194  1.0000
  H   H3511     1.0  0.86593  0.06458  0.63724  1.0000
  H   H3512     1.0  0.83435  0.11809  0.97185  1.0000
  C   C1985     1.0  0.91982  0.25159  0.65449  1.0000
  H   H3513     1.0  0.82352  0.07594  0.50943  1.0000
  C   C1986     1.0  0.87267  0.18263  0.96253  1.0000
  H   H3514     1.0  0.68902  0.12178  0.90015  1.0000
  H   H3515     1.0  0.70834  0.09521  0.87393  1.0000
  H   H3516     1.0  0.75176  0.01563  0.81964  1.0000
  H   H3517     1.0  0.75620  0.08565  0.82504  1.0000
  H   H3518     1.0  0.80811  0.02323  0.53424  1.0000
  H   H3519     1.0  0.75551  0.09600  0.96542  1.0000
  H   H3520     1.0  0.96572  0.21808  0.72925  1.0000
  H   H3521     1.0  0.79687  0.04752  0.51352  1.0000
  H   H3522     1.0  0.78543  0.03958  0.97349  1.0000
  C   C1987     1.0  0.91651  0.25381  0.70494  1.0000
  H   H3523     1.0  0.70746  0.01241  0.97203  1.0000
  C   C1988     1.0  0.74021  0.01839  0.49070  1.0000
  Fe  Fe212     1.0  0.66569  0.00922  0.98062  1.0000
  C   C1989     1.0  0.82439  0.05004  0.49381  1.0000
  C   C1990     1.0  0.94074  0.23790  0.49798  1.0000
  S   S434      1.0  0.80558  0.13278  0.49027  1.0000
  H   H3524     1.0  0.84966  0.15406  0.49479  1.0000
  H   H3525     1.0  0.69425  0.00865  0.53575  1.0000
  H   H3526     1.0  0.67822  0.00999  0.60397  1.0000
  C   C1991     1.0  0.89315  0.22744  0.48626  1.0000
  H   H3527     1.0  0.99217  0.26953  0.22988  1.0000
  H   H3528     1.0  0.97456  0.30233  0.15159  1.0000
  C   C1992     1.0  0.98995  0.40456  0.46040  1.0000
  C   C1993     1.0  0.92256  0.26023  0.26054  1.0000
  H   H3529     1.0  0.96791  0.39222  0.36452  1.0000
  H   H3530     1.0  0.98676  0.26603  0.40452  1.0000
  C   C1994     1.0  0.92270  0.27969  0.16448  1.0000
  S   S435      1.0  0.97105  0.29501  0.38501  1.0000
  Fe  Fe213     1.0  0.94266  0.27143  0.06722  1.0000
  Fe  Fe214     1.0  0.96596  0.31207  0.06517  1.0000
  S   S436      1.0  0.96585  0.34175  0.06260  1.0000
  Fe  Fe215     1.0  0.98002  0.28484  0.03400  1.0000
  Fe  Fe216     1.0  0.98002  0.28349  0.09550  1.0000
  H   H3531     1.0  0.93426  0.29209  0.16739  1.0000
  S   S437      1.0  0.95255  0.29290  0.03399  1.0000
  S   S438      1.0  0.95272  0.29177  0.09884  1.0000
  C   C1995     1.0  0.97915  0.29027  0.21714  1.0000
  C   C1996     1.0  0.92502  0.26427  0.18297  1.0000
  C   C1997     1.0  0.97651  0.28828  0.41725  1.0000
  H   H3532     1.0  0.99634  0.40183  0.47944  1.0000
  H   H3533     1.0  0.95223  0.25709  0.38370  1.0000
  C   C1998     1.0  0.98713  0.39960  0.41266  1.0000
  C   C1999     1.0  0.98442  0.37749  0.05134  1.0000
  C   C2000     1.0  0.98641  0.35988  0.05438  1.0000
  H   H3534     1.0  0.92120  0.30887  0.01290  1.0000
  H   H3535     1.0  0.97045  0.37982  0.05439  1.0000
  H   H3536     1.0  0.99254  0.41357  0.12627  1.0000
  H   H3537     1.0  0.95976  0.36338  0.00359  1.0000
  H   H3538     1.0  0.91564  0.28625  0.25726  1.0000
  C   C2001     1.0  0.98479  0.27790  0.46923  1.0000
  S   S439      1.0  0.97332  0.29590  0.24974  1.0000
  H   H3539     1.0  0.91312  0.28117  0.44506  1.0000
  H   H3540     1.0  0.96677  0.30974  0.19801  1.0000
  N   N113      1.0  0.99577  0.39432  0.43784  1.0000
  H   H3541     1.0  0.93754  0.26819  0.26347  1.0000
  C   C2002     1.0  0.98395  0.34599  0.47278  1.0000
  H   H3542     1.0  0.95251  0.32297  0.16096  1.0000
  H   H3543     1.0  0.92192  0.28147  0.30493  1.0000
  H   H3544     1.0  0.94834  0.34510  0.16158  1.0000
  H   H3545     1.0  0.99315  0.36701  0.42619  1.0000
  H   H3546     1.0  0.98425  0.38229  0.14526  1.0000
  C   C2003     1.0  0.98808  0.28199  0.16450  1.0000
  H   H3547     1.0  0.98679  0.32125  0.99462  1.0000
  H   H3548     1.0  0.97478  0.30029  0.48217  1.0000
  C   C2004     1.0  0.92374  0.26868  0.21292  1.0000
  C   C2005     1.0  0.95195  0.33501  0.14853  1.0000
  C   C2006     1.0  0.90769  0.27507  0.29710  1.0000
  C   C2007     1.0  0.98844  0.27681  0.21295  1.0000
  C   C2008     1.0  0.91076  0.29056  0.48430  1.0000
  Fe  Fe217     1.0  0.97995  0.28142  0.28726  1.0000
  H   H3549     1.0  0.96156  0.38644  0.47201  1.0000
  S   S440      1.0  0.96957  0.26234  0.06544  1.0000
  C   C2009     1.0  0.97408  0.29939  0.19487  1.0000
  H   H3550     1.0  0.91181  0.27517  0.21512  1.0000
  C   C2010     1.0  0.98812  0.26832  0.44714  1.0000
  H   H3551     1.0  0.89816  0.28394  0.30097  1.0000
  C   C2011     1.0  0.97714  0.29263  0.46533  1.0000
  H   H3552     1.0  0.89434  0.26680  0.46663  1.0000
  C   C2012     1.0  0.90942  0.27506  0.46560  1.0000
  H   H3553     1.0  0.98803  0.33562  0.16376  1.0000
  H   H3554     1.0  0.94047  0.33086  0.13404  1.0000
  H   H3555     1.0  0.93924  0.26211  0.17784  1.0000
  C   C2013     1.0  0.98400  0.27348  0.42128  1.0000
  H   H3556     1.0  0.90858  0.28239  0.16831  1.0000
  C   C2014     1.0  0.98769  0.34830  0.15269  1.0000
  C   C2015     1.0  0.90946  0.27266  0.26703  1.0000
  H   H3557     1.0  0.97238  0.37003  0.44234  1.0000
  S   S441      1.0  0.95660  0.26933  0.31842  1.0000
  H   H3558     1.0  0.97129  0.39432  0.41392  1.0000
  H   H3559     1.0  0.96700  0.30911  0.43649  1.0000
  S   S442      1.0  0.99383  0.30485  0.06387  1.0000
  H   H3560     1.0  0.99403  0.25691  0.45000  1.0000
  S   S443      1.0  0.99155  0.25727  0.28666  1.0000
  H   H3561     1.0  0.92356  0.27598  0.14332  1.0000
  H   H3562     1.0  0.98694  0.39752  0.10051  1.0000
  C   C2016     1.0  0.99295  0.27276  0.18674  1.0000
  H   H3563     1.0  0.98746  0.35169  0.00342  1.0000
  C   C2017     1.0  0.92314  0.26358  0.47381  1.0000
  H   H3564     1.0  0.96084  0.40505  0.44935  1.0000
  Fe  Fe218     1.0  0.97816  0.28036  0.34914  1.0000
  C   C2018     1.0  0.97294  0.29774  0.43942  1.0000
  H   H3565     1.0  0.93698  0.27933  0.21700  1.0000
  H   H3566     1.0  0.92551  0.29965  0.48340  1.0000
  H   H3567     1.0  0.95513  0.33132  0.00758  1.0000
  H   H3568     1.0  0.90147  0.26188  0.30798  1.0000
  H   H3569     1.0  0.96948  0.35490  0.12118  1.0000
  C   C2019     1.0  0.92018  0.31014  0.99083  1.0000
  C   C2020     1.0  0.97840  0.29519  0.16863  1.0000
  C   C2021     1.0  0.98827  0.37418  0.44274  1.0000
  S   S444      1.0  0.98940  0.25586  0.35220  1.0000
  H   H3570     1.0  0.94163  0.26440  0.42819  1.0000
  C   C2022     1.0  0.97104  0.34306  0.13326  1.0000
  H   H3571     1.0  0.99358  0.49762  0.33013  1.0000
  H   H3572     1.0  0.92655  0.33884  0.99014  1.0000
  H   H3573     1.0  0.96823  0.34398  0.47511  1.0000
  H   H3574     1.0  0.97345  0.33282  0.11951  1.0000
  C   C2023     1.0  0.98353  0.39869  0.36231  1.0000
  H   H3575     1.0  0.93797  0.27262  0.47252  1.0000
  H   H3576     1.0  0.96776  0.39644  0.00765  1.0000
  C   C2024     1.0  0.96814  0.40091  0.46666  1.0000
  H   H3577     1.0  0.89490  0.26726  0.25960  1.0000
  H   H3578     1.0  0.98373  0.35681  0.16823  1.0000
  H   H3579     1.0  0.90494  0.30848  0.98632  1.0000
  C   C2025     1.0  0.99422  0.36604  0.46878  1.0000
  H   H3580     1.0  0.99096  0.37821  0.38628  1.0000
  H   H3581     1.0  0.99017  0.41459  0.41040  1.0000
  H   H3582     1.0  0.90077  0.29853  0.47813  1.0000
  H   H3583     1.0  0.99576  0.41935  0.45592  1.0000
  H   H3584     1.0  0.98719  0.33842  0.45558  1.0000
  H   H3585     1.0  0.98909  0.39449  0.34336  1.0000
  H   H3586     1.0  0.92809  0.25470  0.37317  1.0000
  H   H3587     1.0  0.98601  0.41355  0.36085  1.0000
  S   S445      1.0  0.99529  0.27729  0.13209  1.0000
  H   H3588     1.0  0.98996  0.46039  0.40073  1.0000
  C   C2026     1.0  0.99390  0.39308  0.38591  1.0000
  S   S446      1.0  0.99692  0.28377  0.99544  1.0000
  H   H3589     1.0  0.91720  0.25976  0.42024  1.0000
  H   H3590     1.0  0.95102  0.25465  0.22848  1.0000
  C   C2027     1.0  0.99743  0.40300  0.11581  1.0000
  H   H3591     1.0  0.95562  0.31042  0.69637  1.0000
  H   H3592     1.0  0.96911  0.36414  0.89175  1.0000
  H   H3593     1.0  0.89375  0.26007  0.74481  1.0000
  H   H3594     1.0  0.99098  0.32598  0.95910  1.0000
  C   C2028     1.0  0.97927  0.27986  0.71599  1.0000
  H   H3595     1.0  0.92640  0.28300  0.73524  1.0000
  H   H3596     1.0  0.95231  0.41230  0.58599  1.0000
  S   S447      1.0  0.96322  0.30175  0.88535  1.0000
  C   C2029     1.0  0.97631  0.40177  0.71089  1.0000
  Fe  Fe219     1.0  0.95934  0.30726  0.56093  1.0000
  S   S448      1.0  0.96021  0.33708  0.55500  1.0000
  Fe  Fe220     1.0  0.97453  0.27832  0.53642  1.0000
  Fe  Fe221     1.0  0.96860  0.27861  0.59736  1.0000
  C   C2030     1.0  0.96798  0.28830  0.96342  1.0000
  S   S449      1.0  0.94839  0.28763  0.52909  1.0000
  S   S450      1.0  0.94207  0.28811  0.59367  1.0000
  H   H3597     1.0  0.97625  0.42280  0.62010  1.0000
  C   C2031     1.0  0.96779  0.41713  0.58022  1.0000
  C   C2032     1.0  0.97220  0.29525  0.91536  1.0000
  S   S451      1.0  0.99126  0.27172  0.50113  1.0000
  H   H3598     1.0  0.90684  0.28189  0.79115  1.0000
  Fe  Fe222     1.0  0.97063  0.28790  0.84907  1.0000
  C   C2033     1.0  0.97990  0.37252  0.54387  1.0000
  C   C2034     1.0  0.98133  0.35477  0.54762  1.0000
  Fe  Fe223     1.0  0.97206  0.28803  0.78767  1.0000
  H   H3599     1.0  0.96596  0.37512  0.54524  1.0000
  H   H3600     1.0  0.96570  0.35774  0.60897  1.0000
  H   H3601     1.0  0.97021  0.40743  0.50872  1.0000
  C   C2035     1.0  0.98707  0.34883  0.98190  1.0000
  H   H3602     1.0  0.96309  0.39434  0.66173  1.0000
  C   C2036     1.0  0.91191  0.28823  0.77100  1.0000
  C   C2037     1.0  0.99457  0.40997  0.82652  1.0000
  H   H3603     1.0  0.94626  0.29380  0.93845  1.0000
  H   H3604     1.0  0.99424  0.45520  0.68868  1.0000
  H   H3605     1.0  0.97911  0.41660  0.70754  1.0000
  C   C2038     1.0  0.90721  0.25738  0.75169  1.0000
  C   C2039     1.0  0.97518  0.27953  0.66774  1.0000
  H   H3606     1.0  0.96023  0.29808  0.65202  1.0000
  H   H3607     1.0  0.96299  0.33201  0.93651  1.0000
  H   H3608     1.0  0.97099  0.40965  0.56292  1.0000
  H   H3609     1.0  0.94690  0.36381  0.97390  1.0000
  H   H3610     1.0  0.93552  0.25777  0.65378  1.0000
  C   C2040     1.0  0.96419  0.41167  0.49023  1.0000
  H   H3611     1.0  0.99252  0.33780  0.63548  1.0000
  H   H3612     1.0  0.97980  0.38784  0.59486  1.0000
  H   H3613     1.0  0.98720  0.46513  0.64333  1.0000
  H   H3614     1.0  0.99469  0.38912  0.79950  1.0000
  C   C2041     1.0  0.99635  0.38697  0.53856  1.0000
  C   C2042     1.0  0.97904  0.39851  0.66066  1.0000
  H   H3615     1.0  0.98329  0.41349  0.65853  1.0000
  Fe  Fe224     1.0  0.93436  0.26730  0.56216  1.0000
  C   C2043     1.0  0.98190  0.27295  0.69097  1.0000
  N   N114      1.0  0.96740  0.34783  0.97203  1.0000
  C   C2044     1.0  0.97427  0.38287  0.97238  1.0000
  H   H3616     1.0  0.96062  0.39556  0.71193  1.0000
  C   C2045     1.0  0.96736  0.39777  0.98550  1.0000
  C   C2046     1.0  0.97989  0.41474  0.60386  1.0000
  S   S452      1.0  0.98631  0.29883  0.56664  1.0000
  C   C2047     1.0  0.96079  0.29267  0.93903  1.0000
  H   H3617     1.0  0.99513  0.42054  0.59738  1.0000
  H   H3618     1.0  0.90680  0.28530  0.50529  1.0000
  H   H3619     1.0  0.94851  0.40924  0.49381  1.0000
  H   H3620     1.0  0.99102  0.36261  0.60267  1.0000
  S   S453      1.0  0.99268  0.30214  0.81756  1.0000
  C   C2048     1.0  0.97613  0.39452  0.61272  1.0000
  H   H3621     1.0  0.95421  0.35131  0.93473  1.0000
  C   C2049     1.0  0.96295  0.29994  0.69492  1.0000
  H   H3622     1.0  0.95254  0.39726  0.97987  1.0000
  H   H3623     1.0  0.93367  0.27456  0.76621  1.0000
  H   H3624     1.0  0.99499  0.40050  0.53605  1.0000
  C   C2050     1.0  0.98221  0.37025  0.64259  1.0000
  H   H3625     1.0  0.89969  0.29090  0.76030  1.0000
  H   H3626     1.0  0.98259  0.37914  0.69287  1.0000
  H   H3627     1.0  0.95728  0.31891  0.97896  1.0000
  C   C2051     1.0  0.92126  0.27608  0.75497  1.0000
  S   S454      1.0  0.98317  0.26357  0.78794  1.0000
  H   H3628     1.0  0.98493  0.27491  0.73349  1.0000
  S   S455      1.0  0.98141  0.26324  0.85334  1.0000
  H   H3629     1.0  0.96041  0.38878  0.61634  1.0000
  H   H3630     1.0  0.92004  0.25994  0.49545  1.0000
  C   C2052     1.0  0.96984  0.29341  0.71813  1.0000
  S   S456      1.0  0.96004  0.25696  0.56761  1.0000
  H   H3631     1.0  0.99352  0.36705  0.65493  1.0000
  H   H3632     1.0  0.95886  0.28584  0.98129  1.0000
  C   C2053     1.0  0.95369  0.33130  0.98544  1.0000
  S   S457      1.0  0.94865  0.27643  0.81910  1.0000
  S   S458      1.0  0.97940  0.27063  0.63675  1.0000
  C   C2054     1.0  0.99088  0.29346  0.91620  1.0000
  C   C2055     1.0  0.96637  0.34639  0.94200  1.0000
  C   C2056     1.0  0.98594  0.39388  0.68850  1.0000
  H   H3633     1.0  0.96859  0.36528  0.65488  1.0000
  S   S459      1.0  0.96670  0.30257  0.74939  1.0000
  H   H3634     1.0  0.97377  0.38520  0.95045  1.0000
  H   H3635     1.0  0.97521  0.34301  0.88772  1.0000
  H   H3636     1.0  0.97108  0.43165  0.57393  1.0000
  H   H3637     1.0  0.98219  0.39912  0.73040  1.0000
  C   C2057     1.0  0.98686  0.28717  0.96454  1.0000
  C   C2058     1.0  0.96554  0.29298  0.66979  1.0000
  H   H3638     1.0  0.98940  0.26259  0.68956  1.0000
  H   H3639     1.0  0.92261  0.30129  0.77363  1.0000
  H   H3640     1.0  0.97895  0.40821  0.82505  1.0000
  C   C2059     1.0  0.97880  0.33853  0.62688  1.0000
  H   H3641     1.0  0.99338  0.36414  0.88338  1.0000
  C   C2060     1.0  0.96125  0.36400  0.98125  1.0000
  N   N115      1.0  0.98653  0.39041  0.63688  1.0000
  C   C2061     1.0  0.99409  0.33166  0.97903  1.0000
  C   C2062     1.0  0.97948  0.35796  0.61828  1.0000
  H   H3642     1.0  0.97636  0.32999  0.60923  1.0000
  H   H3643     1.0  0.93108  0.26328  0.70203  1.0000
  H   H3644     1.0  0.92993  0.32964  0.95820  1.0000
  H   H3645     1.0  0.96690  0.33299  0.64192  1.0000
  H   H3646     1.0  0.92504  0.29919  0.98140  1.0000
  H   H3647     1.0  0.99119  0.38176  0.83431  1.0000
  H   H3648     1.0  0.99085  0.37005  0.93055  1.0000
  C   C2063     1.0  0.93219  0.32862  0.97998  1.0000
  H   H3649     1.0  0.99575  0.34875  0.92674  1.0000
  C   C2064     1.0  0.98022  0.35685  0.89508  1.0000
  C   C2065     1.0  0.98458  0.35611  0.92471  1.0000
  H   H3650     1.0  0.91241  0.26239  0.65156  1.0000
  H   H3651     1.0  0.97686  0.41114  0.97871  1.0000
  H   H3652     1.0  0.90654  0.26246  0.70206  1.0000
  H   H3653     1.0  0.98925  0.38457  0.97810  1.0000
  H   H3654     1.0  0.94381  0.25601  0.74178  1.0000
  H   H3655     1.0  0.98878  0.34039  0.49125  1.0000
  H   H3656     1.0  0.99067  0.37277  0.48663  1.0000
  H   H3657     1.0  0.99800  0.36025  0.97201  1.0000
  H   H3658     1.0  0.97052  0.42634  0.48590  1.0000
  C   C2066     1.0  0.86717  0.63654  0.14258  1.0000
  C   C2067     1.0  0.84606  0.66294  0.38720  1.0000
  C   C2068     1.0  0.67985  0.72129  0.18384  1.0000
  S   S460      1.0  0.98560  0.71106  0.13149  1.0000
  H   H3659     1.0  0.77023  0.62274  0.32463  1.0000
  Fe  Fe225     1.0  0.96795  0.70176  0.09589  1.0000
  S   S461      1.0  0.94864  0.67349  0.09389  1.0000
  Fe  Fe226     1.0  0.79330  0.65025  0.04599  1.0000
  S   S462      1.0  0.79357  0.67936  0.04034  1.0000
  S   S463      1.0  0.76558  0.62798  0.04930  1.0000
  Fe  Fe227     1.0  0.83689  0.65955  0.05418  1.0000
  S   S464      1.0  0.83997  0.68907  0.04841  1.0000
  S   S465      1.0  0.86104  0.64697  0.06411  1.0000
  Fe  Fe228     1.0  0.81323  0.68366  0.07499  1.0000
  S   S466      1.0  0.81203  0.70130  0.11002  1.0000
  Fe  Fe229     1.0  0.82008  0.68143  0.01436  1.0000
  H   H3660     1.0  0.88691  0.64784  0.01706  1.0000
  S   S467      1.0  0.81116  0.65447  0.08240  1.0000
  S   S468      1.0  0.81882  0.65203  0.01825  1.0000
  Fe  Fe230     1.0  0.79742  0.71732  0.29545  1.0000
  S   S469      1.0  0.78352  0.68763  0.29904  1.0000
  C   C2069     1.0  0.97453  0.74733  0.19506  1.0000
  Fe  Fe231     1.0  0.83729  0.71204  0.29097  1.0000
  S   S470      1.0  0.82644  0.68186  0.29409  1.0000
  S   S471      1.0  0.86843  0.72649  0.28431  1.0000
  Fe  Fe232     1.0  0.80440  0.68596  0.26560  1.0000
  S   S472      1.0  0.79537  0.66870  0.22993  1.0000
  Fe  Fe233     1.0  0.80690  0.68690  0.32719  1.0000
  S   S473      1.0  0.79930  0.67024  0.36637  1.0000
  S   S474      1.0  0.81667  0.71576  0.26036  1.0000
  S   S475      1.0  0.81937  0.71687  0.32576  1.0000
  Fe  Fe234     1.0  0.95026  0.70335  0.35091  1.0000
  S   S476      1.0  0.96899  0.73146  0.35450  1.0000
  S   S477      1.0  0.91886  0.69412  0.36172  1.0000
  S   S478      1.0  0.96315  0.69841  0.31150  1.0000
  S   S479      1.0  0.96853  0.69053  0.37563  1.0000
  H   H3661     1.0  0.80444  0.66955  0.46415  1.0000
  S   S480      1.0  0.72351  0.73014  0.39382  1.0000
  C   C2070     1.0  0.76496  0.73599  0.32168  1.0000
  C   C2071     1.0  0.75681  0.71903  0.33424  1.0000
  C   C2072     1.0  0.74383  0.71728  0.35620  1.0000
  C   C2073     1.0  0.73928  0.73251  0.36591  1.0000
  H   H3662     1.0  0.82661  0.64330  0.19662  1.0000
  C   C2074     1.0  0.68876  0.73070  0.30922  1.0000
  H   H3663     1.0  0.76045  0.70728  0.32703  1.0000
  H   H3664     1.0  0.73745  0.70419  0.36582  1.0000
  H   H3665     1.0  0.69778  0.70308  0.18700  1.0000
  C   C2075     1.0  0.66806  0.69117  0.40941  1.0000
  C   C2076     1.0  0.88256  0.71712  0.30514  1.0000
  C   C2077     1.0  0.87399  0.70314  0.32378  1.0000
  C   C2078     1.0  0.88530  0.69600  0.34087  1.0000
  C   C2079     1.0  0.90519  0.70262  0.33915  1.0000
  C   C2080     1.0  0.91386  0.71637  0.32019  1.0000
  C   C2081     1.0  0.90252  0.72377  0.30336  1.0000
  H   H3666     1.0  0.85861  0.69812  0.32554  1.0000
  H   H3667     1.0  0.87866  0.68528  0.35537  1.0000
  H   H3668     1.0  0.92928  0.72134  0.31866  1.0000
  H   H3669     1.0  0.76385  0.64556  0.99682  1.0000
  C   C2082     1.0  0.80791  0.69177  0.14313  1.0000
  C   C2083     1.0  0.81337  0.70297  0.16461  1.0000
  C   C2084     1.0  0.81011  0.69592  0.19119  1.0000
  C   C2085     1.0  0.80072  0.67776  0.19667  1.0000
  C   C2086     1.0  0.79536  0.66652  0.17521  1.0000
  C   C2087     1.0  0.79917  0.67341  0.14855  1.0000
  H   H3670     1.0  0.82031  0.71713  0.16065  1.0000
  H   H3671     1.0  0.81474  0.70459  0.20744  1.0000
  H   H3672     1.0  0.78811  0.65243  0.17923  1.0000
  H   H3673     1.0  0.79490  0.66459  0.13227  1.0000
  C   C2088     1.0  0.81968  0.69532  0.44589  1.0000
  C   C2089     1.0  0.80850  0.67748  0.44559  1.0000
  C   C2090     1.0  0.80233  0.66993  0.42111  1.0000
  C   C2091     1.0  0.80728  0.68012  0.39682  1.0000
  C   C2092     1.0  0.81853  0.69790  0.39727  1.0000
  C   C2093     1.0  0.82464  0.70545  0.42168  1.0000
  C   C2094     1.0  0.68900  0.64110  0.01859  1.0000
  H   H3674     1.0  0.79365  0.65614  0.42101  1.0000
  H   H3675     1.0  0.82260  0.70585  0.37883  1.0000
  H   H3676     1.0  0.83315  0.71929  0.42182  1.0000
  C   C2095     1.0  0.92435  0.66767  0.08496  1.0000
  C   C2096     1.0  0.91317  0.68003  0.08330  1.0000
  C   C2097     1.0  0.89367  0.67417  0.07663  1.0000
  C   C2098     1.0  0.88538  0.65595  0.07180  1.0000
  C   C2099     1.0  0.89668  0.64383  0.07357  1.0000
  C   C2100     1.0  0.91592  0.64962  0.08003  1.0000
  H   H3677     1.0  0.91951  0.69398  0.08734  1.0000
  H   H3678     1.0  0.88503  0.68363  0.07540  1.0000
  H   H3679     1.0  0.89050  0.62976  0.06993  1.0000
  H   H3680     1.0  0.92432  0.63994  0.08135  1.0000
  H   H3681     1.0  0.87013  0.66043  0.18723  1.0000
  H   H3682     1.0  0.69830  0.59728  0.40799  1.0000
  C   C2101     1.0  0.98662  0.66635  0.42611  1.0000
  H   H3683     1.0  0.98068  0.61089  0.17237  1.0000
  Fe  Fe235     1.0  0.98345  0.68830  0.33673  1.0000
  H   H3684     1.0  0.68622  0.73824  0.32692  1.0000
  C   C2102     1.0  0.73203  0.60952  0.02811  1.0000
  C   C2103     1.0  0.74859  0.62387  0.02403  1.0000
  H   H3685     1.0  0.71002  0.74754  0.23426  1.0000
  C   C2104     1.0  0.91983  0.74591  0.22790  1.0000
  H   H3686     1.0  0.86448  0.66604  0.11594  1.0000
  H   H3687     1.0  0.73017  0.60098  0.04617  1.0000
  H   H3688     1.0  0.80594  0.71693  0.01002  1.0000
  C   C2105     1.0  0.67892  0.68422  0.36331  1.0000
  Fe  Fe236     1.0  0.67563  0.60582  0.46992  1.0000
  C   C2106     1.0  0.67118  0.67626  0.39109  1.0000
  C   C2107     1.0  0.67502  0.73291  0.28685  1.0000
  H   H3689     1.0  0.68679  0.71649  0.31598  1.0000
  H   H3690     1.0  0.72407  0.58881  0.11985  1.0000
  H   H3691     1.0  0.91653  0.67082  0.02358  1.0000
  H   H3692     1.0  0.89245  0.61584  0.15883  1.0000
  H   H3693     1.0  0.93507  0.69648  0.43686  1.0000
  C   C2108     1.0  0.69968  0.68959  0.44507  1.0000
  H   H3694     1.0  0.67420  0.73168  0.12726  1.0000
  H   H3695     1.0  0.89191  0.72825  0.41484  1.0000
  C   C2109     1.0  0.83976  0.65456  0.19747  1.0000
  C   C2110     1.0  0.91040  0.72517  0.04655  1.0000
  H   H3696     1.0  0.84673  0.64495  0.23651  1.0000
  C   C2111     1.0  0.89846  0.73637  0.39637  1.0000
  C   C2112     1.0  0.71276  0.64325  0.34726  1.0000
  H   H3697     1.0  0.96448  0.70971  0.99252  1.0000
  C   C2113     1.0  0.80406  0.61812  0.14762  1.0000
  H   H3698     1.0  0.93007  0.74473  0.24352  1.0000
  H   H3699     1.0  0.81031  0.74038  0.01701  1.0000
  H   H3700     1.0  0.71268  0.67143  0.33921  1.0000
  H   H3701     1.0  0.70894  0.58169  0.39140  1.0000
  H   H3702     1.0  0.72396  0.60590  0.14350  1.0000
  S   S481      1.0  0.70786  0.61571  0.46151  1.0000
  H   H3703     1.0  0.79756  0.62616  0.16120  1.0000
  C   C2114     1.0  0.75391  0.73968  0.21539  1.0000
  H   H3704     1.0  0.71736  0.72782  0.08701  1.0000
  H   H3705     1.0  0.67209  0.57093  0.39006  1.0000
  H   H3706     1.0  0.71324  0.73411  0.47540  1.0000
  H   H3707     1.0  0.86539  0.63434  0.12077  1.0000
  H   H3708     1.0  0.74795  0.69056  0.41002  1.0000
  H   H3709     1.0  0.90111  0.71156  0.01041  1.0000
  H   H3710     1.0  0.91868  0.73807  0.44244  1.0000
  H   H3711     1.0  0.94775  0.71802  0.44824  1.0000
  C   C2115     1.0  0.74047  0.66156  0.10945  1.0000
  H   H3712     1.0  0.72918  0.72588  0.24204  1.0000
  H   H3713     1.0  0.79736  0.60361  0.15264  1.0000
  C   C2116     1.0  0.68307  0.67007  0.13598  1.0000
  C   C2117     1.0  0.79997  0.72878  0.00853  1.0000
  H   H3714     1.0  0.95216  0.68803  0.03342  1.0000
  H   H3715     1.0  0.80373  0.73477  0.37538  1.0000
  H   H3716     1.0  0.90544  0.74350  0.23777  1.0000
  H   H3717     1.0  0.85807  0.63726  0.19127  1.0000
  H   H3718     1.0  0.76910  0.66174  0.09467  1.0000
  H   H3719     1.0  0.76119  0.62324  0.29151  1.0000
  H   H3720     1.0  0.75643  0.65669  0.34195  1.0000
  H   H3721     1.0  0.67518  0.54846  0.39205  1.0000
  H   H3722     1.0  0.94482  0.67021  0.01015  1.0000
  N   N116      1.0  0.91830  0.74807  0.40150  1.0000
  H   H3723     1.0  0.68223  0.65018  0.09148  1.0000
  H   H3724     1.0  0.86073  0.72071  0.39131  1.0000
  S   S482      1.0  0.69904  0.74012  0.17296  1.0000
  H   H3725     1.0  0.85374  0.73930  0.37546  1.0000
  H   H3726     1.0  0.68143  0.66924  0.39922  1.0000
  H   H3727     1.0  0.92298  0.70853  0.45862  1.0000
  H   H3728     1.0  0.68059  0.72917  0.26747  1.0000
  N   N117      1.0  0.87230  0.66454  0.45413  1.0000
  C   C2118     1.0  0.85705  0.65827  0.43415  1.0000
  H   H3729     1.0  0.94179  0.74611  0.42635  1.0000
  H   H3730     1.0  0.69232  0.68378  0.13057  1.0000
  C   C2119     1.0  0.89238  0.66739  0.44221  1.0000
  C   C2120     1.0  0.85682  0.67210  0.41088  1.0000
  H   H3731     1.0  0.79121  0.75135  0.38365  1.0000
  C   C2121     1.0  0.74164  0.71687  0.16446  1.0000
  H   H3732     1.0  0.84257  0.65481  0.44442  1.0000
  C   C2122     1.0  0.98805  0.74430  0.99290  1.0000
  H   H3733     1.0  0.71320  0.73069  0.28288  1.0000
  H   H3734     1.0  0.72889  0.70898  0.12660  1.0000
  H   H3735     1.0  0.87364  0.69286  0.44776  1.0000
  H   H3736     1.0  0.89803  0.68141  0.43369  1.0000
  H   H3737     1.0  0.90233  0.66605  0.45822  1.0000
  H   H3738     1.0  0.84949  0.68212  0.41796  1.0000
  H   H3739     1.0  0.87147  0.67960  0.40369  1.0000
  H   H3740     1.0  0.82317  0.74005  0.20919  1.0000
  H   H3741     1.0  0.89747  0.68121  0.01983  1.0000
  H   H3742     1.0  0.92445  0.67068  0.40840  1.0000
  H   H3743     1.0  0.92259  0.65136  0.43112  1.0000
  H   H3744     1.0  0.85404  0.65419  0.37759  1.0000
  H   H3745     1.0  0.84448  0.67331  0.37206  1.0000
  H   H3746     1.0  0.75335  0.71717  0.26037  1.0000
  H   H3747     1.0  0.66964  0.66764  0.12495  1.0000
  H   H3748     1.0  0.91877  0.73294  0.00577  1.0000
  H   H3749     1.0  0.96439  0.67655  0.46180  1.0000
  C   C2123     1.0  0.75231  0.70657  0.21981  1.0000
  H   H3750     1.0  0.84984  0.72207  0.19439  1.0000
  C   C2124     1.0  0.71474  0.65990  0.32788  1.0000
  C   C2125     1.0  0.93108  0.75043  0.37652  1.0000
  C   C2126     1.0  0.90678  0.67422  0.00898  1.0000
  C   C2127     1.0  0.75482  0.70499  0.25036  1.0000
  H   H3751     1.0  0.90252  0.64911  0.98817  1.0000
  C   C2128     1.0  0.92677  0.73857  0.42296  1.0000
  C   C2129     1.0  0.88900  0.64233  0.14712  1.0000
  H   H3752     1.0  0.92359  0.73378  0.05482  1.0000
  C   C2130     1.0  0.74022  0.68865  0.26354  1.0000
  H   H3753     1.0  0.92155  0.67510  0.16001  1.0000
  H   H3754     1.0  0.75772  0.69575  0.21069  1.0000
  H   H3755     1.0  0.73676  0.70285  0.21640  1.0000
  H   H3756     1.0  0.89501  0.62120  0.12314  1.0000
  H   H3757     1.0  0.94400  0.75254  0.32315  1.0000
  H   H3758     1.0  0.80862  0.74168  0.42196  1.0000
  C   C2131     1.0  0.87017  0.68222  0.46420  1.0000
  H   H3759     1.0  0.85509  0.71988  0.22907  1.0000
  H   H3760     1.0  0.92629  0.69540  0.13855  1.0000
  H   H3761     1.0  0.70516  0.59493  0.01237  1.0000
  H   H3762     1.0  0.78894  0.71752  0.20999  1.0000
  H   H3763     1.0  0.76931  0.70344  0.25402  1.0000
  H   H3764     1.0  0.97792  0.67559  0.99245  1.0000
  H   H3765     1.0  0.76857  0.73626  0.16593  1.0000
  H   H3766     1.0  0.77824  0.72797  0.38106  1.0000
  C   C2132     1.0  0.92048  0.73245  0.20574  1.0000
  H   H3767     1.0  0.91381  0.63166  0.14469  1.0000
  H   H3768     1.0  0.71261  0.75281  0.29361  1.0000
  C   C2133     1.0  0.70655  0.73321  0.09764  1.0000
  H   H3769     1.0  0.99251  0.67395  0.14960  1.0000
  H   H3770     1.0  0.97689  0.64795  0.45986  1.0000
  H   H3771     1.0  0.80095  0.62111  0.12659  1.0000
  H   H3772     1.0  0.89133  0.71791  0.47356  1.0000
  H   H3773     1.0  0.74234  0.68828  0.28539  1.0000
  H   H3774     1.0  0.72542  0.68956  0.26035  1.0000
  H   H3775     1.0  0.74214  0.67601  0.25528  1.0000
  H   H3776     1.0  0.83143  0.65985  0.23782  1.0000
  C   C2134     1.0  0.79421  0.73339  0.41716  1.0000
  N   N118      1.0  0.72972  0.64385  0.36433  1.0000
  C   C2135     1.0  0.72407  0.62877  0.38565  1.0000
  C   C2136     1.0  0.73415  0.66143  0.37837  1.0000
  C   C2137     1.0  0.74949  0.66365  0.39988  1.0000
  C   C2138     1.0  0.68339  0.70446  0.18935  1.0000
  H   H3777     1.0  0.98772  0.68900  0.46862  1.0000
  H   H3778     1.0  0.73578  0.62941  0.39973  1.0000
  C   C2139     1.0  0.91450  0.72013  0.01815  1.0000
  H   H3779     1.0  0.72093  0.66345  0.38830  1.0000
  H   H3780     1.0  0.73928  0.67292  0.36345  1.0000
  H   H3781     1.0  0.73377  0.67164  0.11786  1.0000
  H   H3782     1.0  0.74270  0.65713  0.41925  1.0000
  H   H3783     1.0  0.98469  0.71817  0.24228  1.0000
  H   H3784     1.0  0.68445  0.64276  0.13832  1.0000
  C   C2140     1.0  0.86866  0.65119  0.47784  1.0000
  C   C2141     1.0  0.95473  0.68359  0.01314  1.0000
  H   H3785     1.0  0.96475  0.70563  0.48297  1.0000
  N   N119      1.0  0.91044  0.71299  0.21279  1.0000
  C   C2142     1.0  0.91170  0.70207  0.18864  1.0000
  C   C2143     1.0  0.88958  0.71063  0.22024  1.0000
  S   S483      1.0  0.99192  0.66279  0.33083  1.0000
  C   C2144     1.0  0.91990  0.70682  0.23639  1.0000
  C   C2145     1.0  0.91217  0.68663  0.24533  1.0000
  C   C2146     1.0  0.93187  0.70010  0.18068  1.0000
  H   H3786     1.0  0.85851  0.62573  0.45712  1.0000
  C   C2147     1.0  0.87859  0.72006  0.20084  1.0000
  C   C2148     1.0  0.85729  0.71525  0.20876  1.0000
  C   C2149     1.0  0.92359  0.68165  0.26816  1.0000
  C   C2150     1.0  0.93120  0.68882  0.15606  1.0000
  H   H3787     1.0  0.90667  0.70817  0.17071  1.0000
  H   H3788     1.0  0.90187  0.68828  0.19141  1.0000
  H   H3789     1.0  0.88181  0.69610  0.22163  1.0000
  H   H3790     1.0  0.88778  0.71531  0.24068  1.0000
  C   C2151     1.0  0.84395  0.65723  0.22704  1.0000
  H   H3791     1.0  0.71164  0.63028  0.39820  1.0000
  H   H3792     1.0  0.93569  0.71002  0.23259  1.0000
  H   H3793     1.0  0.91809  0.71453  0.25421  1.0000
  H   H3794     1.0  0.91309  0.67773  0.22871  1.0000
  H   H3795     1.0  0.89701  0.68368  0.25270  1.0000
  H   H3796     1.0  0.90490  0.71293  0.05977  1.0000
  H   H3797     1.0  0.93780  0.69339  0.19702  1.0000
  Fe  Fe237     1.0  0.98283  0.73716  0.06432  1.0000
  C   C2152     1.0  0.74343  0.63156  0.48017  1.0000
  H   H3798     1.0  0.88006  0.71607  0.18000  1.0000
  H   H3799     1.0  0.85084  0.70048  0.20854  1.0000
  H   H3800     1.0  0.97622  0.67132  0.02826  1.0000
  C   C2153     1.0  0.97795  0.74790  0.46989  1.0000
  H   H3801     1.0  0.91776  0.66719  0.27436  1.0000
  H   H3802     1.0  0.93887  0.68395  0.26167  1.0000
  H   H3803     1.0  0.92257  0.68976  0.28579  1.0000
  C   C2154     1.0  0.76257  0.73884  0.47854  1.0000
  H   H3804     1.0  0.94574  0.68747  0.15096  1.0000
  H   H3805     1.0  0.98576  0.69398  0.01444  1.0000
  H   H3806     1.0  0.67923  0.67317  0.34983  1.0000
  C   C2155     1.0  0.69356  0.65583  0.12987  1.0000
  H   H3807     1.0  0.91509  0.73710  0.18690  1.0000
  H   H3808     1.0  0.76829  0.67811  0.11928  1.0000
  H   H3809     1.0  0.78436  0.73148  0.23536  1.0000
  C   C2156     1.0  0.71915  0.60936  0.37570  1.0000
  N   N120      1.0  0.70918  0.64272  0.08997  1.0000
  H   H3810     1.0  0.70082  0.66848  0.29389  1.0000
  C   C2157     1.0  0.95253  0.69735  0.99098  1.0000
  H   H3811     1.0  0.67924  0.66920  0.15770  1.0000
  H   H3812     1.0  0.76698  0.69020  0.38589  1.0000
  H   H3813     1.0  0.89929  0.72628  0.38125  1.0000
  H   H3814     1.0  0.88265  0.65934  0.98705  1.0000
  H   H3815     1.0  0.70704  0.65900  0.14066  1.0000
  C   C2158     1.0  0.76164  0.72306  0.17642  1.0000
  N   N121      1.0  0.93377  0.70236  0.99090  1.0000
  C   C2159     1.0  0.89397  0.65659  0.99958  1.0000
  H   H3816     1.0  0.70163  0.59234  0.13157  1.0000
  H   H3817     1.0  0.72914  0.66416  0.31779  1.0000
  H   H3818     1.0  0.83154  0.65466  0.39383  1.0000
  H   H3819     1.0  0.71150  0.67968  0.48033  1.0000
  C   C2160     1.0  0.97745  0.73135  0.20643  1.0000
  H   H3820     1.0  0.75693  0.63720  0.36109  1.0000
  C   C2161     1.0  0.86474  0.66743  0.13801  1.0000
  H   H3821     1.0  0.97576  0.71972  0.19439  1.0000
  H   H3822     1.0  0.89629  0.65332  0.13242  1.0000
  N   N122      1.0  0.76221  0.72466  0.20643  1.0000
  H   H3823     1.0  0.72852  0.68832  0.45283  1.0000
  C   C2162     1.0  0.85562  0.68284  0.14461  1.0000
  C   C2163     1.0  0.86401  0.69951  0.12617  1.0000
  H   H3824     1.0  0.72345  0.72722  0.20791  1.0000
  H   H3825     1.0  0.71900  0.73693  0.31642  1.0000
  H   H3826     1.0  0.83572  0.64343  0.12047  1.0000
  H   H3827     1.0  0.82642  0.65069  0.14971  1.0000
  C   C2164     1.0  0.77847  0.73799  0.43511  1.0000
  S   S484      1.0  0.78134  0.73851  0.29438  1.0000
  S   S485      1.0  0.99320  0.74653  0.28213  1.0000
  H   H3828     1.0  0.84003  0.67890  0.14208  1.0000
  H   H3829     1.0  0.85861  0.68685  0.16542  1.0000
  H   H3830     1.0  0.86065  0.69645  0.10504  1.0000
  H   H3831     1.0  0.85753  0.71048  0.13182  1.0000
  H   H3832     1.0  0.87976  0.70429  0.12779  1.0000
  H   H3833     1.0  0.68076  0.70310  0.40715  1.0000
  H   H3834     1.0  0.73823  0.63934  0.30675  1.0000
  C   C2165     1.0  0.71683  0.59917  0.12586  1.0000
  H   H3835     1.0  0.75901  0.73550  0.98810  1.0000
  H   H3836     1.0  0.92817  0.70036  0.03408  1.0000
  C   C2166     1.0  0.85685  0.65027  0.18203  1.0000
  H   H3837     1.0  0.71222  0.63183  0.12983  1.0000
  C   C2167     1.0  0.71180  0.59551  0.39886  1.0000
  C   C2168     1.0  0.93080  0.71052  0.01718  1.0000
  H   H3838     1.0  0.76130  0.74611  0.23319  1.0000
  H   H3839     1.0  0.86885  0.72836  0.35736  1.0000
  H   H3840     1.0  0.72683  0.74049  0.99069  1.0000
  H   H3841     1.0  0.85646  0.66892  0.22935  1.0000
  H   H3842     1.0  0.93836  0.71945  0.40084  1.0000
  H   H3843     1.0  0.76337  0.70567  0.44918  1.0000
  C   C2169     1.0  0.70965  0.73830  0.29980  1.0000
  Fe  Fe238     1.0  0.97617  0.73622  0.12591  1.0000
  H   H3844     1.0  0.77008  0.71360  0.17005  1.0000
  H   H3845     1.0  0.89938  0.73279  0.04627  1.0000
  H   H3846     1.0  0.93951  0.65490  0.47465  1.0000
  C   C2170     1.0  0.67090  0.72935  0.10586  1.0000
  H   H3847     1.0  0.85497  0.68098  0.47061  1.0000
  H   H3848     1.0  0.76469  0.73204  0.42552  1.0000
  H   H3849     1.0  0.69167  0.62832  0.01224  1.0000
  H   H3850     1.0  0.90917  0.73469  0.28911  1.0000
  H   H3851     1.0  0.76100  0.65733  0.39417  1.0000
  Fe  Fe239     1.0  0.98340  0.72555  0.31633  1.0000
  H   H3852     1.0  0.91360  0.71058  0.41169  1.0000
  Fe  Fe240     1.0  0.98847  0.71809  0.37670  1.0000
  H   H3853     1.0  0.69812  0.66120  0.04719  1.0000
  H   H3854     1.0  0.79884  0.74318  0.17731  1.0000
  S   S486      1.0  0.99303  0.71220  0.06672  1.0000
  H   H3855     1.0  0.78631  0.72585  0.02061  1.0000
  S   S487      1.0  0.95689  0.72608  0.09206  1.0000
  N   N123      1.0  0.85587  0.64927  0.15194  1.0000
  H   H3856     1.0  0.83120  0.61331  0.13800  1.0000
  C   C2171     1.0  0.89804  0.62675  0.14321  1.0000
  C   C2172     1.0  0.89517  0.65515  0.41920  1.0000
  C   C2173     1.0  0.91635  0.65651  0.41352  1.0000
  C   C2174     1.0  0.75888  0.68348  0.40435  1.0000
  H   H3857     1.0  0.99798  0.66729  0.06434  1.0000
  H   H3858     1.0  0.68664  0.62660  0.06716  1.0000
  H   H3859     1.0  0.76916  0.68442  0.42052  1.0000
  H   H3860     1.0  0.75143  0.70377  0.13091  1.0000
  H   H3861     1.0  0.93586  0.73401  0.20110  1.0000
  H   H3862     1.0  0.85810  0.64558  0.42528  1.0000
  H   H3863     1.0  0.88947  0.65937  0.40042  1.0000
  H   H3864     1.0  0.68509  0.65164  0.31600  1.0000
  H   H3865     1.0  0.70793  0.60717  0.36072  1.0000
  H   H3866     1.0  0.93094  0.73705  0.36873  1.0000
  H   H3867     1.0  0.73221  0.60649  0.36692  1.0000
  C   C2175     1.0  0.74748  0.64292  0.34827  1.0000
  C   C2176     1.0  0.83573  0.64231  0.14276  1.0000
  C   C2177     1.0  0.82564  0.62235  0.15101  1.0000
  C   C2178     1.0  0.69693  0.65476  0.09923  1.0000
  H   H3868     1.0  0.73397  0.72743  0.16660  1.0000
  H   H3869     1.0  0.99237  0.64479  0.16727  1.0000
  H   H3870     1.0  0.88774  0.64080  0.42358  1.0000
  C   C2179     1.0  0.79165  0.73718  0.38753  1.0000
  H   H3871     1.0  0.67389  0.63832  0.02600  1.0000
  C   C2180     1.0  0.74452  0.63226  0.32225  1.0000
  H   H3872     1.0  0.74786  0.63463  0.45930  1.0000
  C   C2181     1.0  0.93370  0.71002  0.44182  1.0000
  H   H3873     1.0  0.88002  0.67258  0.14278  1.0000
  C   C2182     1.0  0.68648  0.72146  0.09290  1.0000
  H   H3874     1.0  0.91793  0.64834  0.39618  1.0000
  H   H3875     1.0  0.70937  0.73322  0.11930  1.0000
  C   C2183     1.0  0.70161  0.63512  0.06388  1.0000
  H   H3876     1.0  0.83639  0.66680  0.18921  1.0000
  C   C2184     1.0  0.70232  0.64918  0.04053  1.0000
  H   H3877     1.0  0.70985  0.62603  0.05613  1.0000
  H   H3878     1.0  0.71710  0.65370  0.03147  1.0000
  C   C2185     1.0  0.97741  0.67543  0.47196  1.0000
  H   H3879     1.0  0.73344  0.61916  0.09744  1.0000
  C   C2186     1.0  0.98224  0.73040  0.23364  1.0000
  C   C2187     1.0  0.75108  0.63455  0.00028  1.0000
  H   H3880     1.0  0.86155  0.62302  0.15286  1.0000
  C   C2188     1.0  0.97492  0.68101  0.01191  1.0000
  H   H3881     1.0  0.97196  0.66432  0.41874  1.0000
  H   H3882     1.0  0.69961  0.64196  0.36020  1.0000
  C   C2189     1.0  0.69973  0.65609  0.30654  1.0000
  C   C2190     1.0  0.71808  0.61287  0.10253  1.0000
  H   H3883     1.0  0.73806  0.64509  0.07472  1.0000
  H   H3884     1.0  0.70196  0.64541  0.29345  1.0000
  C   C2191     1.0  0.76358  0.63047  0.31044  1.0000
  H   H3885     1.0  0.79368  0.71895  0.41984  1.0000
  H   H3886     1.0  0.88404  0.73493  0.20123  1.0000
  H   H3887     1.0  0.70183  0.70318  0.45312  1.0000
  H   H3888     1.0  0.77362  0.64398  0.30590  1.0000
  H   H3889     1.0  0.69205  0.61974  0.11326  1.0000
  H   H3890     1.0  0.71144  0.60514  0.08542  1.0000
  C   C2192     1.0  0.98574  0.66201  0.45624  1.0000
  C   C2193     1.0  0.70737  0.62710  0.10992  1.0000
  C   C2194     1.0  0.72970  0.65338  0.08480  1.0000
  H   H3891     1.0  0.70822  0.74729  0.09001  1.0000
  H   H3892     1.0  0.73057  0.66491  0.07036  1.0000
  H   H3893     1.0  0.68547  0.70769  0.10121  1.0000
  H   H3894     1.0  0.82822  0.61903  0.17209  1.0000
  H   H3895     1.0  0.72258  0.59691  0.41451  1.0000
  H   H3896     1.0  0.70285  0.66877  0.09073  1.0000
  H   H3897     1.0  0.94416  0.72072  0.02213  1.0000
  H   H3898     1.0  0.73485  0.61856  0.32567  1.0000
  C   C2195     1.0  0.76122  0.67141  0.10164  1.0000
  C   C2196     1.0  0.92764  0.71914  0.41727  1.0000
  H   H3899     1.0  0.70933  0.63104  0.33529  1.0000
  H   H3900     1.0  0.69128  0.65070  0.00094  1.0000
  H   H3901     1.0  0.89199  0.64709  0.16760  1.0000
  H   H3902     1.0  0.68509  0.72095  0.07090  1.0000
  C   C2197     1.0  0.67877  0.67813  0.45054  1.0000
  C   C2198     1.0  0.71784  0.60606  0.00897  1.0000
  H   H3903     1.0  0.76200  0.68195  0.08558  1.0000
  H   H3904     1.0  0.74066  0.65105  0.12510  1.0000
  C   C2199     1.0  0.98444  0.74556  0.24933  1.0000
  H   H3905     1.0  0.94195  0.71342  0.17565  1.0000
  C   C2200     1.0  0.86892  0.63164  0.47223  1.0000
  H   H3906     1.0  0.88348  0.63126  0.46544  1.0000
  H   H3907     1.0  0.71176  0.66663  0.45099  1.0000
  H   H3908     1.0  0.69366  0.69316  0.36438  1.0000
  C   C2201     1.0  0.71365  0.68046  0.45818  1.0000
  C   C2202     1.0  0.98316  0.74125  0.44567  1.0000
  C   C2203     1.0  0.88326  0.74607  0.38744  1.0000
  C   C2204     1.0  0.78299  0.72915  0.21358  1.0000
  C   C2205     1.0  0.79671  0.73964  0.47553  1.0000
  H   H3909     1.0  0.98456  0.68936  0.18966  1.0000
  C   C2206     1.0  0.72561  0.75145  0.22904  1.0000
  H   H3910     1.0  0.70358  0.69121  0.42333  1.0000
  H   H3911     1.0  0.67308  0.74290  0.09602  1.0000
  H   H3912     1.0  0.97704  0.74415  0.42714  1.0000
  H   H3913     1.0  0.73841  0.72051  0.45910  1.0000
  H   H3914     1.0  0.66958  0.69210  0.35476  1.0000
  S   S488      1.0  0.97937  0.75024  0.02390  1.0000
  C   C2207     1.0  0.74339  0.71394  0.13451  1.0000
  H   H3915     1.0  0.67785  0.66437  0.44359  1.0000
  H   H3916     1.0  0.67533  0.60691  0.34031  1.0000
  H   H3917     1.0  0.73292  0.70399  0.17396  1.0000
  C   C2208     1.0  0.73226  0.73463  0.22352  1.0000
  H   H3918     1.0  0.75084  0.72678  0.12347  1.0000
  C   C2209     1.0  0.74266  0.73448  0.46590  1.0000
  C   C2210     1.0  0.86557  0.73274  0.37739  1.0000
  H   H3919     1.0  0.78577  0.70667  0.46286  1.0000
  C   C2211     1.0  0.79648  0.74597  0.19860  1.0000
  H   H3920     1.0  0.75357  0.67479  0.47435  1.0000
  S   S489      1.0  0.68283  0.74889  0.41287  1.0000
  C   C2212     1.0  0.81613  0.75116  0.21080  1.0000
  C   C2213     1.0  0.66838  0.68935  0.19814  1.0000
  S   S490      1.0  0.82750  0.70563  0.47596  1.0000
  H   H3921     1.0  0.67708  0.74772  0.28473  1.0000
  C   C2214     1.0  0.74743  0.74945  0.35338  1.0000
  C   C2215     1.0  0.77253  0.71123  0.46585  1.0000
  H   H3922     1.0  0.78067  0.75289  0.43336  1.0000
  C   C2216     1.0  0.76007  0.75114  0.33107  1.0000
  H   H3923     1.0  0.67367  0.69493  0.29070  1.0000
  H   H3924     1.0  0.87860  0.75272  0.40479  1.0000
  H   H3925     1.0  0.74313  0.74369  0.44813  1.0000
  H   H3926     1.0  0.75665  0.75071  0.19954  1.0000
  S   S491      1.0  0.96668  0.74921  0.16203  1.0000
  H   H3927     1.0  0.67526  0.71296  0.44997  1.0000
  H   H3928     1.0  0.67647  0.67629  0.47268  1.0000
  H   H3929     1.0  0.67133  0.67657  0.20279  1.0000
  N   N124      1.0  0.77738  0.73158  0.46426  1.0000
  H   H3930     1.0  0.80801  0.73496  0.46475  1.0000
  H   H3931     1.0  0.99419  0.59781  0.15517  1.0000
  H   H3932     1.0  0.99360  0.65724  0.41543  1.0000
  C   C2217     1.0  0.99665  0.73121  0.44541  1.0000
  H   H3933     1.0  0.99504  0.68049  0.42130  1.0000
  C   C2218     1.0  0.99526  0.61063  0.16526  1.0000
  H   H3934     1.0  0.99489  0.65578  0.11304  1.0000
  H   H3935     1.0  0.99374  0.62584  0.12932  1.0000
  H   H3936     1.0  0.91246  0.75336  0.34402  1.0000
  C   C2219     1.0  0.66518  0.55673  0.39676  1.0000
  H   H3937     1.0  0.76765  0.75381  0.47909  1.0000
  C   C2220     1.0  0.72708  0.73694  0.48548  1.0000
  H   H3938     1.0  0.89734  0.68826  0.48549  1.0000
  C   C2221     1.0  0.73284  0.69306  0.74373  1.0000
  C   C2222     1.0  0.76674  0.62961  0.71922  1.0000
  H   H3939     1.0  0.73669  0.67634  0.90859  1.0000
  H   H3940     1.0  0.74864  0.72904  0.74516  1.0000
  H   H3941     1.0  0.67159  0.60085  0.84342  1.0000
  Fe  Fe241     1.0  0.97091  0.70533  0.59530  1.0000
  S   S492      1.0  0.95235  0.67690  0.59093  1.0000
  Fe  Fe242     1.0  0.79764  0.65696  0.54705  1.0000
  S   S493      1.0  0.79850  0.68626  0.54422  1.0000
  S   S494      1.0  0.76823  0.63709  0.55278  1.0000
  Fe  Fe243     1.0  0.84183  0.66564  0.54936  1.0000
  S   S495      1.0  0.84519  0.69539  0.54646  1.0000
  S   S496      1.0  0.86705  0.65319  0.54968  1.0000
  Fe  Fe244     1.0  0.82010  0.68945  0.57623  1.0000
  S   S497      1.0  0.81750  0.70676  0.61124  1.0000
  Fe  Fe245     1.0  0.82324  0.68881  0.51487  1.0000
  N   N125      1.0  0.91071  0.71494  0.73294  1.0000
  S   S498      1.0  0.81789  0.65995  0.58094  1.0000
  S   S499      1.0  0.82125  0.65928  0.51575  1.0000
  Fe  Fe246     1.0  0.79195  0.71901  0.79172  1.0000
  S   S500      1.0  0.77997  0.68902  0.79321  1.0000
  H   H3942     1.0  0.73696  0.72415  0.67671  1.0000
  Fe  Fe247     1.0  0.83271  0.71678  0.79607  1.0000
  S   S501      1.0  0.82408  0.68654  0.79817  1.0000
  S   S502      1.0  0.86314  0.73387  0.79531  1.0000
  Fe  Fe248     1.0  0.80477  0.68933  0.76491  1.0000
  S   S503      1.0  0.80273  0.67149  0.72954  1.0000
  Fe  Fe249     1.0  0.80036  0.68931  0.82639  1.0000
  S   S504      1.0  0.78981  0.67174  0.86419  1.0000
  S   S505      1.0  0.81509  0.71938  0.76082  1.0000
  S   S506      1.0  0.81049  0.71941  0.82678  1.0000
  Fe  Fe250     1.0  0.95020  0.70941  0.85182  1.0000
  C   C2223     1.0  0.74895  0.75006  0.82014  1.0000
  S   S507      1.0  0.91870  0.70124  0.86347  1.0000
  S   S508      1.0  0.96110  0.70075  0.81332  1.0000
  S   S509      1.0  0.96664  0.69532  0.87824  1.0000
  C   C2224     1.0  0.77982  0.62531  0.80741  1.0000
  S   S510      1.0  0.72021  0.73349  0.89128  1.0000
  C   C2225     1.0  0.75832  0.73659  0.81607  1.0000
  C   C2226     1.0  0.75562  0.72213  0.83480  1.0000
  C   C2227     1.0  0.74363  0.72120  0.85761  1.0000
  C   C2228     1.0  0.73469  0.73492  0.86211  1.0000
  N   N126      1.0  0.97861  0.65653  0.67648  1.0000
  C   C2229     1.0  0.88618  0.72757  0.70729  1.0000
  H   H3943     1.0  0.76273  0.71164  0.83168  1.0000
  H   H3944     1.0  0.74125  0.70982  0.87174  1.0000
  S   S511      1.0  0.97936  0.75321  0.52408  1.0000
  H   H3945     1.0  0.69506  0.67695  0.62454  1.0000
  C   C2230     1.0  0.87820  0.72541  0.81589  1.0000
  C   C2231     1.0  0.87184  0.70826  0.82834  1.0000
  C   C2232     1.0  0.88447  0.70107  0.84287  1.0000
  C   C2233     1.0  0.90349  0.71097  0.84519  1.0000
  C   C2234     1.0  0.90983  0.72832  0.83326  1.0000
  C   C2235     1.0  0.89707  0.73559  0.81882  1.0000
  H   H3946     1.0  0.85730  0.70040  0.82645  1.0000
  H   H3947     1.0  0.87969  0.68755  0.85145  1.0000
  H   H3948     1.0  0.97031  0.59725  0.71574  1.0000
  H   H3949     1.0  0.70993  0.73603  0.77386  1.0000
  C   C2236     1.0  0.81456  0.69724  0.64433  1.0000
  C   C2237     1.0  0.80860  0.70660  0.66505  1.0000
  C   C2238     1.0  0.80554  0.69907  0.69142  1.0000
  C   C2239     1.0  0.80831  0.68208  0.69724  1.0000
  C   C2240     1.0  0.81466  0.67289  0.67666  1.0000
  C   C2241     1.0  0.81786  0.68047  0.65035  1.0000
  H   H3950     1.0  0.80620  0.71965  0.66059  1.0000
  H   H3951     1.0  0.80074  0.70624  0.70718  1.0000
  H   H3952     1.0  0.81708  0.65984  0.68106  1.0000
  H   H3953     1.0  0.82298  0.67339  0.63476  1.0000
  C   C2242     1.0  0.81699  0.68940  0.94397  1.0000
  C   C2243     1.0  0.80234  0.67346  0.94298  1.0000
  C   C2244     1.0  0.79426  0.66803  0.91836  1.0000
  C   C2245     1.0  0.80067  0.67855  0.89463  1.0000
  C   C2246     1.0  0.81548  0.69435  0.89564  1.0000
  C   C2247     1.0  0.82358  0.69972  0.92018  1.0000
  H   H3954     1.0  0.79714  0.66537  0.96119  1.0000
  H   H3955     1.0  0.78287  0.65575  0.91778  1.0000
  H   H3956     1.0  0.82069  0.70249  0.87753  1.0000
  H   H3957     1.0  0.83490  0.71208  0.92073  1.0000
  C   C2248     1.0  0.92868  0.67182  0.57910  1.0000
  C   C2249     1.0  0.92097  0.65451  0.57011  1.0000
  C   C2250     1.0  0.90227  0.64935  0.56109  1.0000
  C   C2251     1.0  0.89067  0.66127  0.56116  1.0000
  C   C2252     1.0  0.89826  0.67876  0.56999  1.0000
  C   C2253     1.0  0.91727  0.68403  0.57890  1.0000
  H   H3958     1.0  0.92947  0.64491  0.57032  1.0000
  H   H3959     1.0  0.89662  0.63583  0.55445  1.0000
  H   H3960     1.0  0.88950  0.68813  0.57012  1.0000
  H   H3961     1.0  0.92295  0.69743  0.58593  1.0000
  H   H3962     1.0  0.74314  0.62071  0.69376  1.0000
  H   H3963     1.0  0.91970  0.68981  0.69545  1.0000
  H   H3964     1.0  0.73425  0.67909  0.74263  1.0000
  H   H3965     1.0  0.68485  0.64460  0.66516  1.0000
  H   H3966     1.0  0.70807  0.64050  0.91115  1.0000
  C   C2254     1.0  0.71877  0.61838  0.51416  1.0000
  C   C2255     1.0  0.73239  0.62303  0.53395  1.0000
  C   C2256     1.0  0.75155  0.63210  0.52706  1.0000
  H   H3967     1.0  0.69716  0.73325  0.61387  1.0000
  H   H3968     1.0  0.97176  0.68256  0.74810  1.0000
  H   H3969     1.0  0.73144  0.63849  0.65337  1.0000
  H   H3970     1.0  0.72807  0.61933  0.55465  1.0000
  H   H3971     1.0  0.69686  0.62762  0.88378  1.0000
  H   H3972     1.0  0.90354  0.70114  0.68052  1.0000
  H   H3973     1.0  0.75589  0.69716  0.61793  1.0000
  N   N127      1.0  0.74889  0.63040  0.82972  1.0000
  C   C2257     1.0  0.73900  0.64524  0.83275  1.0000
  C   C2258     1.0  0.76640  0.63783  0.81136  1.0000
  C   C2259     1.0  0.73637  0.61420  0.81708  1.0000
  C   C2260     1.0  0.71676  0.60537  0.83145  1.0000
  C   C2261     1.0  0.73097  0.65172  0.80691  1.0000
  C   C2262     1.0  0.70476  0.59061  0.81473  1.0000
  C   C2263     1.0  0.72104  0.66642  0.81288  1.0000
  H   H3974     1.0  0.74902  0.65719  0.84119  1.0000
  H   H3975     1.0  0.72669  0.64115  0.84742  1.0000
  H   H3976     1.0  0.76233  0.64109  0.79092  1.0000
  H   H3977     1.0  0.73391  0.61757  0.79587  1.0000
  H   H3978     1.0  0.74378  0.60331  0.81600  1.0000
  H   H3979     1.0  0.70838  0.61526  0.83494  1.0000
  H   H3980     1.0  0.71885  0.59885  0.85084  1.0000
  H   H3981     1.0  0.74248  0.65753  0.79152  1.0000
  H   H3982     1.0  0.72025  0.64048  0.79832  1.0000
  H   H3983     1.0  0.77255  0.61322  0.79662  1.0000
  H   H3984     1.0  0.74477  0.64076  0.88620  1.0000
  H   H3985     1.0  0.72788  0.61979  0.87983  1.0000
  H   H3986     1.0  0.70092  0.59655  0.79580  1.0000
  H   H3987     1.0  0.71263  0.58048  0.80999  1.0000
  H   H3988     1.0  0.69130  0.58355  0.82607  1.0000
  H   H3989     1.0  0.70894  0.66126  0.82772  1.0000
  H   H3990     1.0  0.73138  0.67833  0.82065  1.0000
  H   H3991     1.0  0.71521  0.67069  0.79424  1.0000
  C   C2264     1.0  0.76164  0.70129  0.49162  1.0000
  H   H3992     1.0  0.94527  0.72383  0.89998  1.0000
  H   H3993     1.0  0.76059  0.72260  0.67028  1.0000
  C   C2265     1.0  0.69449  0.63585  0.90064  1.0000
  H   H3994     1.0  0.75149  0.74871  0.61054  1.0000
  H   H3995     1.0  0.75167  0.68813  0.96375  1.0000
  H   H3996     1.0  0.68859  0.70262  0.63362  1.0000
  H   H3997     1.0  0.77161  0.71057  0.98137  1.0000
  H   H3998     1.0  0.87960  0.65561  0.49305  1.0000
  C   C2266     1.0  0.74798  0.69155  0.94325  1.0000
  C   C2267     1.0  0.97323  0.66192  0.70379  1.0000
  H   H3999     1.0  0.75270  0.66686  0.92785  1.0000
  H   H4000     1.0  0.92735  0.69887  0.75216  1.0000
  C   C2268     1.0  0.68603  0.69140  0.88486  1.0000
  H   H4001     1.0  0.95620  0.71567  0.52922  1.0000
  S   S512      1.0  0.96723  0.75123  0.66309  1.0000
  H   H4002     1.0  0.88406  0.69940  0.71736  1.0000
  C   C2269     1.0  0.76794  0.65624  0.62669  1.0000
  H   H4003     1.0  0.79390  0.60163  0.62847  1.0000
  H   H4004     1.0  0.76649  0.65392  0.60491  1.0000
  H   H4005     1.0  0.80698  0.62572  0.78749  1.0000
  C   C2270     1.0  0.79783  0.63501  0.79069  1.0000
  C   C2271     1.0  0.99645  0.67054  0.66621  1.0000
  H   H4006     1.0  0.92748  0.66006  0.64237  1.0000
  H   H4007     1.0  0.69555  0.68473  0.95628  1.0000
  H   H4008     1.0  0.76326  0.61133  0.63919  1.0000
  H   H4009     1.0  0.73941  0.62263  0.59948  1.0000
  H   H4010     1.0  0.81560  0.74490  0.87714  1.0000
  H   H4011     1.0  0.72988  0.72491  0.72234  1.0000
  H   H4012     1.0  0.90572  0.73200  0.76457  1.0000
  C   C2272     1.0  0.74520  0.72512  0.72443  1.0000
  H   H4013     1.0  0.90713  0.68613  0.73614  1.0000
  H   H4014     1.0  0.92789  0.69697  0.64762  1.0000
  H   H4015     1.0  0.79150  0.74552  0.97841  1.0000
  C   C2273     1.0  0.74670  0.70542  0.72314  1.0000
  C   C2274     1.0  0.68208  0.71727  0.68991  1.0000
  H   H4016     1.0  0.82682  0.61356  0.95323  1.0000
  H   H4017     1.0  0.78121  0.74088  0.73057  1.0000
  H   H4018     1.0  0.77590  0.69696  0.92284  1.0000
  S   S513      1.0  0.97231  0.73632  0.85163  1.0000
  H   H4019     1.0  0.86940  0.71171  0.49410  1.0000
  H   H4020     1.0  0.87423  0.62428  0.51329  1.0000
  C   C2275     1.0  0.73727  0.74931  0.84329  1.0000
  C   C2276     1.0  0.73713  0.63076  0.98076  1.0000
  H   H4021     1.0  0.83025  0.74282  0.50274  1.0000
  C   C2277     1.0  0.98186  0.75057  0.96896  1.0000
  H   H4022     1.0  0.91898  0.74386  0.73642  1.0000
  H   H4023     1.0  0.70844  0.65713  0.65313  1.0000
  C   C2278     1.0  0.89010  0.71267  0.72619  1.0000
  C   C2279     1.0  0.68403  0.74420  0.76512  1.0000
  H   H4024     1.0  0.90272  0.70535  0.78779  1.0000
  H   H4025     1.0  0.76129  0.70456  0.72788  1.0000
  H   H4026     1.0  0.74332  0.70007  0.70305  1.0000
  N   N128      1.0  0.97347  0.67118  0.50168  1.0000
  C   C2280     1.0  0.75224  0.73212  0.67655  1.0000
  H   H4027     1.0  0.88116  0.71239  0.74483  1.0000
  H   H4028     1.0  0.95743  0.62244  0.70169  1.0000
  H   H4029     1.0  0.98219  0.65429  0.55163  1.0000
  H   H4030     1.0  0.74312  0.75415  0.65665  1.0000
  H   H4031     1.0  0.67842  0.67467  0.58536  1.0000
  H   H4032     1.0  0.77172  0.64328  0.49442  1.0000
  H   H4033     1.0  0.98008  0.69711  0.52000  1.0000
  C   C2281     1.0  0.93548  0.71679  0.96894  1.0000
  H   H4034     1.0  0.93971  0.71660  0.50342  1.0000
  N   N129      1.0  0.86186  0.66163  0.91601  1.0000
  C   C2282     1.0  0.84827  0.66293  0.89429  1.0000
  C   C2283     1.0  0.86500  0.67825  0.93217  1.0000
  C   C2284     1.0  0.88040  0.65994  0.90323  1.0000
  C   C2285     1.0  0.85369  0.64528  0.93455  1.0000
  C   C2286     1.0  0.83279  0.64263  0.94540  1.0000
  C   C2287     1.0  0.84285  0.64656  0.87620  1.0000
  C   C2288     1.0  0.89711  0.66129  0.92233  1.0000
  C   C2289     1.0  0.87502  0.69642  0.91696  1.0000
  C   C2290     1.0  0.87881  0.71199  0.93587  1.0000
  H   H4035     1.0  0.79323  0.75073  0.67108  1.0000
  C   C2291     1.0  0.82666  0.64786  0.85808  1.0000
  C   C2292     1.0  0.91454  0.65776  0.90787  1.0000
  H   H4036     1.0  0.85444  0.67480  0.88053  1.0000
  H   H4037     1.0  0.83500  0.66556  0.90291  1.0000
  H   H4038     1.0  0.85113  0.67972  0.94029  1.0000
  H   H4039     1.0  0.87322  0.67690  0.95017  1.0000
  H   H4040     1.0  0.88550  0.67024  0.88663  1.0000
  H   H4041     1.0  0.87812  0.64678  0.89360  1.0000
  H   H4042     1.0  0.85447  0.63271  0.92482  1.0000
  H   H4043     1.0  0.86249  0.64577  0.95242  1.0000
  H   H4044     1.0  0.82264  0.64087  0.92895  1.0000
  H   H4045     1.0  0.83148  0.65431  0.95688  1.0000
  H   H4046     1.0  0.85537  0.64614  0.86312  1.0000
  H   H4047     1.0  0.83803  0.63362  0.88806  1.0000
  H   H4048     1.0  0.89290  0.65127  0.93936  1.0000
  H   H4049     1.0  0.90166  0.67494  0.93025  1.0000
  H   H4050     1.0  0.88897  0.69619  0.90759  1.0000
  H   H4051     1.0  0.86593  0.69961  0.90108  1.0000
  H   H4052     1.0  0.88825  0.70983  0.95196  1.0000
  H   H4053     1.0  0.88593  0.72478  0.92445  1.0000
  H   H4054     1.0  0.86518  0.71337  0.94511  1.0000
  N   N130      1.0  0.77473  0.72183  0.94045  1.0000
  H   H4055     1.0  0.89212  0.71436  0.50932  1.0000
  H   H4056     1.0  0.93392  0.69837  0.52851  1.0000
  H   H4057     1.0  0.83032  0.66097  0.84645  1.0000
  H   H4058     1.0  0.82412  0.63684  0.84383  1.0000
  H   H4059     1.0  0.81327  0.64646  0.87030  1.0000
  H   H4060     1.0  0.91955  0.66750  0.89058  1.0000
  H   H4061     1.0  0.92643  0.65931  0.92182  1.0000
  H   H4062     1.0  0.91107  0.64386  0.90059  1.0000
  C   C2293     1.0  0.96104  0.68317  0.73294  1.0000
  H   H4063     1.0  0.99652  0.65824  0.50574  1.0000
  C   C2294     1.0  0.91835  0.70292  0.68709  1.0000
  C   C2295     1.0  0.68192  0.72534  0.61434  1.0000
  H   H4064     1.0  0.99592  0.66864  0.62245  1.0000
  H   H4065     1.0  0.69823  0.66938  0.92090  1.0000
  H   H4066     1.0  0.69919  0.65999  0.87603  1.0000
  H   H4067     1.0  0.76882  0.74803  0.94218  1.0000
  C   C2296     1.0  0.86371  0.61949  0.49771  1.0000
  H   H4068     1.0  0.99332  0.60829  0.70028  1.0000
  C   C2297     1.0  0.72428  0.62242  0.48713  1.0000
  C   C2298     1.0  0.79902  0.73506  0.50543  1.0000
  C   C2299     1.0  0.96320  0.65614  0.65675  1.0000
  H   H4069     1.0  0.74086  0.61894  0.92443  1.0000
  H   H4070     1.0  0.95938  0.68131  0.53410  1.0000
  C   C2300     1.0  0.67035  0.72490  0.76566  1.0000
  H   H4071     1.0  0.80047  0.61832  0.60094  1.0000
  H   H4072     1.0  0.77751  0.69174  0.60701  1.0000
  H   H4073     1.0  0.70265  0.70328  0.93169  1.0000
  H   H4074     1.0  0.95613  0.65087  0.52962  1.0000
  C   C2301     1.0  0.93903  0.72626  0.91954  1.0000
  H   H4075     1.0  0.70566  0.73831  0.73855  1.0000
  H   H4076     1.0  0.71142  0.69692  0.83930  1.0000
  C   C2302     1.0  0.88262  0.68975  0.48804  1.0000
  H   H4077     1.0  0.76049  0.73405  0.49986  1.0000
  C   C2303     1.0  0.91704  0.73139  0.74937  1.0000
  H   H4078     1.0  0.67249  0.67317  0.71261  1.0000
  H   H4079     1.0  0.96708  0.65120  0.63729  1.0000
  C   C2304     1.0  0.75699  0.63648  0.50004  1.0000
  H   H4080     1.0  0.94741  0.73120  0.75072  1.0000
  C   C2305     1.0  0.70466  0.74404  0.75838  1.0000
  H   H4081     1.0  0.91409  0.63717  0.65088  1.0000
  H   H4082     1.0  0.93052  0.72056  0.65221  1.0000
  C   C2306     1.0  0.76513  0.64211  0.67190  1.0000
  H   H4083     1.0  0.73049  0.75102  0.49206  1.0000
  Fe  Fe251     1.0  0.98408  0.74124  0.56484  1.0000
  C   C2307     1.0  0.97573  0.74791  0.69514  1.0000
  H   H4084     1.0  0.76141  0.61767  0.73320  1.0000
  H   H4085     1.0  0.67376  0.60061  0.60000  1.0000
  H   H4086     1.0  0.81991  0.74180  0.53612  1.0000
  H   H4087     1.0  0.80241  0.72455  0.92052  1.0000
  H   H4088     1.0  0.94310  0.62984  0.66665  1.0000
  H   H4089     1.0  0.78318  0.72336  0.88134  1.0000
  H   H4090     1.0  0.76205  0.64108  0.72729  1.0000
  C   C2308     1.0  0.75862  0.67148  0.63411  1.0000
  C   C2309     1.0  0.98750  0.74539  0.94394  1.0000
  H   H4091     1.0  0.75499  0.68048  0.59324  1.0000
  C   C2310     1.0  0.69366  0.65803  0.65746  1.0000
  H   H4092     1.0  0.93781  0.64807  0.68459  1.0000
  H   H4093     1.0  0.85895  0.71100  0.69396  1.0000
  H   H4094     1.0  0.94750  0.67274  0.73837  1.0000
  H   H4095     1.0  0.68159  0.67320  0.85061  1.0000
  H   H4096     1.0  0.76501  0.67786  0.65245  1.0000
  H   H4097     1.0  0.67710  0.71632  0.77807  1.0000
  H   H4098     1.0  0.79381  0.62597  0.65996  1.0000
  H   H4099     1.0  0.73620  0.69764  0.76429  1.0000
  C   C2311     1.0  0.98790  0.73037  0.72860  1.0000
  C   C2312     1.0  0.93174  0.70780  0.66214  1.0000
  H   H4100     1.0  0.98172  0.69155  0.70051  1.0000
  H   H4101     1.0  0.75730  0.61119  0.85631  1.0000
  S   S514      1.0  0.70178  0.73603  0.68067  1.0000
  S   S515      1.0  0.95839  0.72876  0.59226  1.0000
  H   H4102     1.0  0.97824  0.63001  0.72117  1.0000
  C   C2313     1.0  0.75555  0.62512  0.85653  1.0000
  C   C2314     1.0  0.74323  0.62637  0.88199  1.0000
  C   C2315     1.0  0.86474  0.72420  0.70304  1.0000
  C   C2316     1.0  0.75080  0.73807  0.62642  1.0000
  H   H4103     1.0  0.68519  0.72085  0.95770  1.0000
  C   C2317     1.0  0.79215  0.62853  0.63830  1.0000
  H   H4104     1.0  0.68347  0.62710  0.91472  1.0000
  Fe  Fe252     1.0  0.97715  0.73926  0.62638  1.0000
  S   S516      1.0  0.70358  0.61166  0.95961  1.0000
  H   H4105     1.0  0.85683  0.72436  0.72240  1.0000
  H   H4106     1.0  0.89345  0.72799  0.68734  1.0000
  H   H4107     1.0  0.77518  0.65076  0.81880  1.0000
  H   H4108     1.0  0.94580  0.72952  0.97436  1.0000
  H   H4109     1.0  0.77004  0.63389  0.86038  1.0000
  H   H4110     1.0  0.78449  0.62083  0.82678  1.0000
  H   H4111     1.0  0.92460  0.73098  0.69767  1.0000
  C   C2318     1.0  0.90021  0.69361  0.77507  1.0000
  H   H4112     1.0  0.67473  0.64624  0.87874  1.0000
  H   H4113     1.0  0.85464  0.65067  0.48806  1.0000
  C   C2319     1.0  0.98332  0.63846  0.67852  1.0000
  C   C2320     1.0  0.94299  0.64419  0.66521  1.0000
  H   H4114     1.0  0.73500  0.61699  0.64984  1.0000
  H   H4115     1.0  0.84921  0.61933  0.50577  1.0000
  H   H4116     1.0  0.71783  0.69296  0.73980  1.0000
  H   H4117     1.0  0.77551  0.67938  0.49217  1.0000
  H   H4118     1.0  0.80040  0.64251  0.63282  1.0000
  H   H4119     1.0  0.78355  0.66192  0.62866  1.0000
  H   H4120     1.0  0.78059  0.64862  0.67390  1.0000
  H   H4121     1.0  0.93376  0.72311  0.78121  1.0000
  H   H4122     1.0  0.67542  0.65437  0.92931  1.0000
  N   N131      1.0  0.67425  0.67807  0.90584  1.0000
  C   C2321     1.0  0.80125  0.61593  0.62289  1.0000
  C   C2322     1.0  0.94167  0.71233  0.94059  1.0000
  H   H4123     1.0  0.80618  0.64680  0.80121  1.0000
  H   H4124     1.0  0.70243  0.62811  0.62551  1.0000
  C   C2323     1.0  0.75899  0.62530  0.69148  1.0000
  C   C2324     1.0  0.92845  0.64592  0.64449  1.0000
  H   H4125     1.0  0.95818  0.69661  0.73338  1.0000
  H   H4126     1.0  0.73420  0.64404  0.60303  1.0000
  H   H4127     1.0  0.74298  0.66649  0.63792  1.0000
  H   H4128     1.0  0.69979  0.69951  0.69879  1.0000
  H   H4129     1.0  0.98149  0.72244  0.68808  1.0000
  H   H4130     1.0  0.73932  0.63884  0.96226  1.0000
  H   H4131     1.0  0.76424  0.61396  0.68431  1.0000
  H   H4132     1.0  0.75779  0.65201  0.67960  1.0000
  H   H4133     1.0  0.76986  0.62521  0.60982  1.0000
  H   H4134     1.0  0.98072  0.63154  0.65929  1.0000
  H   H4135     1.0  0.89123  0.74100  0.71589  1.0000
  S   S517      1.0  0.98353  0.66143  0.83472  1.0000
  C   C2325     1.0  0.76198  0.68609  0.61166  1.0000
  C   C2326     1.0  0.73951  0.63103  0.64103  1.0000
  Fe  Fe253     1.0  0.97936  0.68892  0.83984  1.0000
  S   S518      1.0  0.82730  0.69722  0.97437  1.0000
  H   H4136     1.0  0.90283  0.66605  0.77907  1.0000
  N   N132      1.0  0.76082  0.63870  0.64299  1.0000
  H   H4137     1.0  0.79406  0.63968  0.77082  1.0000
  C   C2327     1.0  0.91215  0.69815  0.74826  1.0000
  H   H4138     1.0  0.99294  0.71876  0.73402  1.0000
  C   C2328     1.0  0.71059  0.62112  0.61254  1.0000
  H   H4139     1.0  0.81657  0.61852  0.62768  1.0000
  C   C2329     1.0  0.77072  0.62535  0.63201  1.0000
  C   C2330     1.0  0.90521  0.67828  0.79098  1.0000
  H   H4140     1.0  0.92443  0.73614  0.83535  1.0000
  H   H4141     1.0  0.93256  0.64165  0.62470  1.0000
  H   H4142     1.0  0.78264  0.63312  0.71819  1.0000
  H   H4143     1.0  0.99366  0.68396  0.66345  1.0000
  C   C2331     1.0  0.68530  0.70072  0.69819  1.0000
  C   C2332     1.0  0.76106  0.73345  0.94427  1.0000
  H   H4144     1.0  0.70065  0.71248  0.97927  1.0000
  H   H4145     1.0  0.96067  0.65177  0.71310  1.0000
  C   C2333     1.0  0.73199  0.63031  0.61233  1.0000
  H   H4146     1.0  0.70413  0.61124  0.51977  1.0000
  H   H4147     1.0  0.69411  0.66796  0.67311  1.0000
  H   H4148     1.0  0.70763  0.60682  0.61987  1.0000
  C   C2334     1.0  0.69093  0.69573  0.94580  1.0000
  C   C2335     1.0  0.94571  0.70740  0.51594  1.0000
  H   H4149     1.0  0.87608  0.68236  0.50695  1.0000
  H   H4150     1.0  0.93323  0.69885  0.93492  1.0000
  C   C2336     1.0  0.93589  0.73323  0.76425  1.0000
  S   S519      1.0  0.98809  0.71486  0.63126  1.0000
  C   C2337     1.0  0.80244  0.74970  0.87763  1.0000
  H   H4151     1.0  0.92359  0.72516  0.91720  1.0000
  H   H4152     1.0  0.86225  0.73494  0.68933  1.0000
  C   C2338     1.0  0.96862  0.68044  0.70498  1.0000
  H   H4153     1.0  0.70548  0.62148  0.59188  1.0000
  H   H4154     1.0  0.95707  0.71264  0.93977  1.0000
  C   C2339     1.0  0.76514  0.70453  0.92750  1.0000
  Fe  Fe254     1.0  0.98962  0.72134  0.87556  1.0000
  H   H4155     1.0  0.68787  0.70223  0.59749  1.0000
  H   H4156     1.0  0.92036  0.68242  0.79672  1.0000
  H   H4157     1.0  0.92276  0.67762  0.97082  1.0000
  C   C2340     1.0  0.68207  0.68724  0.85505  1.0000
  C   C2341     1.0  0.78302  0.71725  0.96626  1.0000
  C   C2342     1.0  0.97316  0.62484  0.70149  1.0000
  H   H4158     1.0  0.70157  0.69312  0.88779  1.0000
  H   H4159     1.0  0.76200  0.73110  0.62163  1.0000
  H   H4160     1.0  0.83562  0.62691  0.98154  1.0000
  C   C2343     1.0  0.69736  0.69962  0.83626  1.0000
  H   H4161     1.0  0.67070  0.71978  0.74517  1.0000
  C   C2344     1.0  0.74115  0.67384  0.92912  1.0000
  C   C2345     1.0  0.68770  0.65183  0.88996  1.0000
  H   H4162     1.0  0.89603  0.67490  0.80962  1.0000
  Fe  Fe255     1.0  0.98460  0.72632  0.81484  1.0000
  C   C2346     1.0  0.99203  0.66991  0.51353  1.0000
  H   H4163     1.0  0.68398  0.75026  0.78486  1.0000
  H   H4164     1.0  0.69365  0.69716  0.81511  1.0000
  H   H4165     1.0  0.74771  0.60289  0.90384  1.0000
  H   H4166     1.0  0.88468  0.68927  0.77131  1.0000
  C   C2347     1.0  0.99190  0.66746  0.54453  1.0000
  C   C2348     1.0  0.95875  0.65342  0.50762  1.0000
  H   H4167     1.0  0.68395  0.70508  0.88736  1.0000
  C   C2349     1.0  0.76084  0.68126  0.49207  1.0000
  H   H4168     1.0  0.93859  0.71844  0.71333  1.0000
  H   H4169     1.0  0.75280  0.67433  0.51044  1.0000
  H   H4170     1.0  0.81140  0.62420  0.97159  1.0000
  C   C2350     1.0  0.68391  0.66351  0.91296  1.0000
  C   C2351     1.0  0.96734  0.68628  0.51475  1.0000
  H   H4171     1.0  0.73576  0.69765  0.94425  1.0000
  H   H4172     1.0  0.96210  0.67003  0.65168  1.0000
  H   H4173     1.0  0.95764  0.68163  0.69063  1.0000
  S   S520      1.0  0.77330  0.73789  0.78752  1.0000
  H   H4174     1.0  0.76824  0.70682  0.51015  1.0000
  H   H4175     1.0  0.79110  0.70705  0.96291  1.0000
  H   H4176     1.0  0.95526  0.69143  0.97178  1.0000
  C   C2352     1.0  0.75411  0.74664  0.65354  1.0000
  C   C2353     1.0  0.67227  0.68785  0.93102  1.0000
  H   H4177     1.0  0.90625  0.69072  0.97398  1.0000
  C   C2354     1.0  0.74967  0.61750  0.90652  1.0000
  C   C2355     1.0  0.92365  0.71768  0.70800  1.0000
  C   C2356     1.0  0.68065  0.70517  0.61592  1.0000
  C   C2357     1.0  0.98168  0.73256  0.70249  1.0000
  H   H4178     1.0  0.75941  0.70741  0.90804  1.0000
  H   H4179     1.0  0.78785  0.73813  0.51859  1.0000
  H   H4180     1.0  0.67912  0.67980  0.53659  1.0000
  H   H4181     1.0  0.98504  0.66219  0.71757  1.0000
  H   H4182     1.0  0.76492  0.62397  0.91019  1.0000
  H   H4183     1.0  0.98725  0.67825  0.55459  1.0000
  H   H4184     1.0  0.69857  0.71399  0.84004  1.0000
  C   C2358     1.0  0.78602  0.73587  0.89268  1.0000
  C   C2359     1.0  0.88392  0.70967  0.49135  1.0000
  H   H4185     1.0  0.79861  0.72062  0.50821  1.0000
  H   H4186     1.0  0.67536  0.72899  0.59591  1.0000
  C   C2360     1.0  0.81842  0.74575  0.51487  1.0000
  H   H4187     1.0  0.68592  0.65380  0.61672  1.0000
  C   C2361     1.0  0.68548  0.66388  0.63193  1.0000
  H   H4188     1.0  0.92159  0.72015  0.96679  1.0000
  H   H4189     1.0  0.97281  0.60063  0.67981  1.0000
  C   C2362     1.0  0.95525  0.69630  0.49813  1.0000
  H   H4190     1.0  0.94683  0.70941  0.66748  1.0000
  H   H4191     1.0  0.75069  0.73142  0.92795  1.0000
  C   C2363     1.0  0.97770  0.60667  0.69904  1.0000
  H   H4192     1.0  0.72542  0.72750  0.50325  1.0000
  C   C2364     1.0  0.68778  0.70847  0.96717  1.0000
  C   C2365     1.0  0.82635  0.62578  0.96405  1.0000
  H   H4193     1.0  0.94640  0.74013  0.92509  1.0000
  S   S521      1.0  0.99605  0.71728  0.56679  1.0000
  C   C2366     1.0  0.98834  0.74360  0.74734  1.0000
  H   H4194     1.0  0.99315  0.63178  0.81025  1.0000
  H   H4195     1.0  0.72874  0.66483  0.94066  1.0000
  H   H4196     1.0  0.74669  0.70238  0.49248  1.0000
  Fe  Fe256     1.0  0.67137  0.60187  0.96879  1.0000
  C   C2367     1.0  0.98603  0.74442  0.49405  1.0000
  C   C2368     1.0  0.99782  0.64349  0.79663  1.0000
  H   H4197     1.0  0.99182  0.60754  0.88512  1.0000
  N   N133      1.0  0.75761  0.73863  0.70425  1.0000
  C   C2369     1.0  0.66983  0.68573  0.70591  1.0000
  H   H4198     1.0  0.93205  0.62277  0.48987  1.0000
  H   H4199     1.0  0.93146  0.66047  0.50714  1.0000
  C   C2370     1.0  0.79119  0.73197  0.92179  1.0000
  H   H4200     1.0  0.67454  0.72917  0.63207  1.0000
  H   H4201     1.0  0.81109  0.73664  0.96844  1.0000
  H   H4202     1.0  0.78120  0.72638  0.70421  1.0000
  H   H4203     1.0  0.73644  0.72830  0.62649  1.0000
  H   H4204     1.0  0.86378  0.60550  0.49323  1.0000
  H   H4205     1.0  0.67540  0.70177  0.98089  1.0000
  H   H4206     1.0  0.94388  0.68713  0.48732  1.0000
  H   H4207     1.0  0.81679  0.74140  0.69960  1.0000
  C   C2371     1.0  0.99472  0.65992  0.80368  1.0000
  C   C2372     1.0  0.93871  0.65158  0.49644  1.0000
  H   H4208     1.0  0.92464  0.62827  0.52271  1.0000
  H   H4209     1.0  0.66809  0.68937  0.84981  1.0000
  H   H4210     1.0  0.66962  0.74681  0.84562  1.0000
  H   H4211     1.0  0.74140  0.71688  0.97607  1.0000
  H   H4212     1.0  0.77320  0.74115  0.89239  1.0000
  H   H4213     1.0  0.96420  0.64204  0.50084  1.0000
  H   H4214     1.0  0.79831  0.74526  0.92984  1.0000
  C   C2373     1.0  0.72039  0.61657  0.98509  1.0000
  H   H4215     1.0  0.66476  0.55083  0.67453  1.0000
  H   H4216     1.0  0.67215  0.72146  0.81938  1.0000
  H   H4217     1.0  0.72498  0.73861  0.95499  1.0000
  C   C2374     1.0  0.92602  0.63235  0.50104  1.0000
  H   H4218     1.0  0.91150  0.63157  0.49390  1.0000
  H   H4219     1.0  0.98271  0.75042  0.92568  1.0000
  C   C2375     1.0  0.74942  0.73104  0.97141  1.0000
  C   C2376     1.0  0.77824  0.73937  0.70897  1.0000
  H   H4220     1.0  0.90177  0.74907  0.80977  1.0000
  C   C2377     1.0  0.73514  0.74248  0.97129  1.0000
  H   H4221     1.0  0.95606  0.75248  0.78694  1.0000
  C   C2378     1.0  0.94294  0.75184  0.77571  1.0000
  C   C2379     1.0  0.79688  0.73332  0.97929  1.0000
  H   H4222     1.0  0.79845  0.75172  0.85669  1.0000
  S   S522      1.0  0.67801  0.75113  0.91311  1.0000
  H   H4223     1.0  0.66608  0.69935  0.92644  1.0000
  H   H4224     1.0  0.66500  0.72653  0.86645  1.0000
  C   C2380     1.0  0.79354  0.75396  0.69250  1.0000
  H   H4225     1.0  0.67999  0.75307  0.74966  1.0000
  C   C2381     1.0  0.91752  0.68633  0.98485  1.0000
  C   C2382     1.0  0.67827  0.83813  0.46516  1.0000
  H   H4226     1.0  0.69964  0.86271  0.26653  1.0000
  C   C2383     1.0  0.72650  0.96640  0.30646  1.0000
  H   H4227     1.0  0.97441  0.77461  0.20249  1.0000
  C   C2384     1.0  0.68669  0.96894  0.37270  1.0000
  Fe  Fe257     1.0  0.71911  0.79535  0.40653  1.0000
  H   H4228     1.0  0.83966  0.96633  0.35079  1.0000
  S   S523      1.0  0.74109  0.82222  0.40612  1.0000
  C   C2385     1.0  0.69007  0.83674  0.30614  1.0000
  H   H4229     1.0  0.70921  0.80980  0.32159  1.0000
  H   H4230     1.0  0.74220  0.93156  0.03774  1.0000
  H   H4231     1.0  0.74618  0.80955  0.29011  1.0000
  H   H4232     1.0  0.72979  0.90798  0.03788  1.0000
  S   S524      1.0  0.71282  0.77792  0.37098  1.0000
  S   S525      1.0  0.72345  0.77311  0.43368  1.0000
  Fe  Fe258     1.0  0.74561  0.95908  0.39617  1.0000
  S   S526      1.0  0.77494  0.96104  0.37822  1.0000
  S   S527      1.0  0.73795  0.98532  0.40141  1.0000
  Fe  Fe259     1.0  0.73454  0.91813  0.39927  1.0000
  S   S528      1.0  0.76304  0.91723  0.38232  1.0000
  S   S529      1.0  0.71121  0.89231  0.40677  1.0000
  Fe  Fe260     1.0  0.77471  0.93949  0.41010  1.0000
  S   S530      1.0  0.80033  0.93889  0.43443  1.0000
  Fe  Fe261     1.0  0.76023  0.93869  0.35214  1.0000
  S   S531      1.0  0.76123  0.93247  0.30778  1.0000
  S   S532      1.0  0.74630  0.93880  0.42934  1.0000
  S   S533      1.0  0.73086  0.93833  0.36801  1.0000
  Fe  Fe262     1.0  0.71262  0.81025  0.16451  1.0000
  S   S534      1.0  0.73845  0.83496  0.16227  1.0000
  S   S535      1.0  0.70514  0.78975  0.19950  1.0000
  S   S536      1.0  0.70690  0.78856  0.13433  1.0000
  Fe  Fe263     1.0  0.77302  0.98102  0.11219  1.0000
  S   S537      1.0  0.80293  0.98041  0.12026  1.0000
  C   C2386     1.0  0.71745  0.82746  0.28543  1.0000
  Fe  Fe264     1.0  0.75797  0.93976  0.12600  1.0000
  S   S538      1.0  0.78732  0.93746  0.13468  1.0000
  S   S539      1.0  0.73302  0.91435  0.12762  1.0000
  Fe  Fe265     1.0  0.79007  0.96292  0.15691  1.0000
  S   S540      1.0  0.80213  0.97046  0.19785  1.0000
  Fe  Fe266     1.0  0.79614  0.95521  0.09703  1.0000
  S   S541      1.0  0.81589  0.94939  0.06452  1.0000
  S   S542      1.0  0.76023  0.96456  0.14988  1.0000
  S   S543      1.0  0.76671  0.95651  0.08737  1.0000
  C   C2387     1.0  0.73656  0.85701  0.15323  1.0000
  C   C2388     1.0  0.75245  0.87194  0.15557  1.0000
  C   C2389     1.0  0.75157  0.88955  0.14813  1.0000
  C   C2390     1.0  0.73477  0.89249  0.13813  1.0000
  C   C2391     1.0  0.71890  0.87757  0.13581  1.0000
  C   C2392     1.0  0.71977  0.85998  0.14332  1.0000
  H   H4233     1.0  0.76552  0.86987  0.16327  1.0000
  H   H4234     1.0  0.76385  0.90084  0.15036  1.0000
  H   H4235     1.0  0.70581  0.87962  0.12816  1.0000
  H   H4236     1.0  0.70744  0.84873  0.14127  1.0000
  C   C2393     1.0  0.77157  0.94473  0.27769  1.0000
  C   C2394     1.0  0.78709  0.96009  0.27743  1.0000
  C   C2395     1.0  0.79615  0.96799  0.25285  1.0000
  C   C2396     1.0  0.78953  0.96093  0.22828  1.0000
  C   C2397     1.0  0.77354  0.94603  0.22856  1.0000
  C   C2398     1.0  0.76482  0.93785  0.25311  1.0000
  H   H4237     1.0  0.79242  0.96565  0.29610  1.0000
  H   H4238     1.0  0.80846  0.97956  0.25286  1.0000
  H   H4239     1.0  0.76827  0.94042  0.20987  1.0000
  H   H4240     1.0  0.75286  0.92597  0.25301  1.0000
  H   H4241     1.0  0.70108  0.97340  0.38104  1.0000
  C   C2399     1.0  0.82488  0.96144  0.35967  1.0000
  C   C2400     1.0  0.79516  0.94848  0.01764  1.0000
  C   C2401     1.0  0.81082  0.94489  0.03050  1.0000
  C   C2402     1.0  0.82351  0.93767  0.01577  1.0000
  H   H4242     1.0  0.67123  0.82781  0.37216  1.0000
  C   C2403     1.0  0.69106  0.84499  0.08471  1.0000
  H   H4243     1.0  0.78533  0.95418  0.02871  1.0000
  H   H4244     1.0  0.83567  0.93492  0.02534  1.0000
  H   H4245     1.0  0.79777  0.92447  0.24020  1.0000
  C   C2404     1.0  0.73252  0.84153  0.40608  1.0000
  C   C2405     1.0  0.74505  0.85813  0.41157  1.0000
  C   C2406     1.0  0.73860  0.87376  0.41174  1.0000
  C   C2407     1.0  0.71964  0.87293  0.40612  1.0000
  C   C2408     1.0  0.70709  0.85633  0.40069  1.0000
  C   C2409     1.0  0.71349  0.84064  0.40073  1.0000
  H   H4246     1.0  0.75975  0.85887  0.41592  1.0000
  H   H4247     1.0  0.74823  0.88638  0.41677  1.0000
  H   H4248     1.0  0.69239  0.85564  0.39640  1.0000
  H   H4249     1.0  0.70378  0.82792  0.39629  1.0000
  H   H4250     1.0  0.73995  0.82717  0.07081  1.0000
  H   H4251     1.0  0.75050  0.83597  0.10127  1.0000
  C   C2410     1.0  0.80161  0.93962  0.46983  1.0000
  H   H4252     1.0  0.72600  0.85230  0.32522  1.0000
  C   C2411     1.0  0.66686  0.78176  0.01740  1.0000
  H   H4253     1.0  0.72009  0.85707  0.25269  1.0000
  H   H4254     1.0  0.69775  0.94375  0.40539  1.0000
  C   C2412     1.0  0.81249  0.92287  0.24098  1.0000
  H   H4255     1.0  0.82163  0.93239  0.22566  1.0000
  H   H4256     1.0  0.79246  0.91726  0.28849  1.0000
  H   H4257     1.0  0.74618  0.99441  0.03833  1.0000
  C   C2413     1.0  0.72113  0.98575  0.42731  1.0000
  C   C2414     1.0  0.71439  0.97110  0.44559  1.0000
  S   S544      1.0  0.68348  0.81481  0.16354  1.0000
  H   H4258     1.0  0.71977  0.95937  0.44434  1.0000
  H   H4259     1.0  0.72008  0.96583  0.00452  1.0000
  C   C2415     1.0  0.69038  0.83664  0.33721  1.0000
  H   H4260     1.0  0.73439  0.84008  0.47230  1.0000
  C   C2416     1.0  0.91722  0.76589  0.41216  1.0000
  H   H4261     1.0  0.72323  0.79307  0.28884  1.0000
  H   H4262     1.0  0.71031  0.80514  0.02229  1.0000
  H   H4263     1.0  0.67305  0.83762  0.05138  1.0000
  H   H4264     1.0  0.69567  0.82142  0.04357  1.0000
  H   H4265     1.0  0.86662  0.90960  0.30325  1.0000
  H   H4266     1.0  0.83068  0.90637  0.34502  1.0000
  H   H4267     1.0  0.80560  0.90090  0.28538  1.0000
  H   H4268     1.0  0.80068  0.75459  0.47238  1.0000
  H   H4269     1.0  0.76558  0.83340  0.07295  1.0000
  H   H4270     1.0  0.91468  0.76757  0.20247  1.0000
  H   H4271     1.0  0.78543  0.87563  0.37338  1.0000
  H   H4272     1.0  0.78282  0.88326  0.31297  1.0000
  Fe  Fe267     1.0  0.69244  0.76810  0.44567  1.0000
  C   C2417     1.0  0.71416  0.89284  0.47879  1.0000
  H   H4273     1.0  0.71508  0.85918  0.45980  1.0000
  H   H4274     1.0  0.67908  0.83136  0.25540  1.0000
  H   H4275     1.0  0.71582  0.83938  0.04948  1.0000
  C   C2418     1.0  0.72247  0.81715  0.31012  1.0000
  S   S545      1.0  0.68858  0.79170  0.42053  1.0000
  C   C2419     1.0  0.73170  0.98805  0.03088  1.0000
  H   H4276     1.0  0.84314  0.99872  0.14597  1.0000
  H   H4277     1.0  0.74987  0.95985  0.98989  1.0000
  H   H4278     1.0  0.73210  0.82624  0.32346  1.0000
  C   C2420     1.0  0.68810  0.84516  0.05460  1.0000
  H   H4279     1.0  0.79038  0.75773  0.19940  1.0000
  H   H4280     1.0  0.70075  0.82979  0.34524  1.0000
  C   C2421     1.0  0.69286  0.83846  0.24491  1.0000
  H   H4281     1.0  0.86705  0.91060  0.33940  1.0000
  H   H4282     1.0  0.70727  0.81702  0.27451  1.0000
  H   H4283     1.0  0.69979  0.82829  0.23726  1.0000
  H   H4284     1.0  0.83156  0.90076  0.31117  1.0000
  H   H4285     1.0  0.73790  0.86009  0.29412  1.0000
  C   C2422     1.0  0.68842  0.84887  0.22041  1.0000
  H   H4286     1.0  0.81222  0.90890  0.23585  1.0000
  H   H4287     1.0  0.92400  0.77445  0.35855  1.0000
  H   H4288     1.0  0.73056  0.83212  0.27202  1.0000
  C   C2423     1.0  0.72363  0.85722  0.30484  1.0000
  H   H4289     1.0  0.94324  0.77370  0.43562  1.0000
  N   N134      1.0  0.70914  0.84308  0.29076  1.0000
  H   H4290     1.0  0.69170  0.94419  0.35661  1.0000
  C   C2424     1.0  0.70611  0.85127  0.26382  1.0000
  H   H4291     1.0  0.68954  0.77326  0.08431  1.0000
  H   H4292     1.0  0.98367  0.77327  0.24935  1.0000
  H   H4293     1.0  0.72946  0.99699  0.01407  1.0000
  H   H4294     1.0  0.66815  0.98646  0.29814  1.0000
  H   H4295     1.0  0.67072  0.80827  0.46403  1.0000
  C   C2425     1.0  0.68720  0.76744  0.04242  1.0000
  H   H4296     1.0  0.67964  0.98846  0.07233  1.0000
  Fe  Fe268     1.0  0.71368  0.75514  0.39998  1.0000
  C   C2426     1.0  0.85019  0.92681  0.32028  1.0000
  H   H4297     1.0  0.69438  0.85061  0.34411  1.0000
  H   H4298     1.0  0.77311  0.86024  0.34947  1.0000
  H   H4299     1.0  0.93710  0.77248  0.31312  1.0000
  H   H4300     1.0  0.82521  0.96403  0.38139  1.0000
  H   H4301     1.0  0.69021  0.83116  0.09273  1.0000
  N   N135      1.0  0.81276  0.91774  0.31938  1.0000
  C   C2427     1.0  0.81451  0.93706  0.32596  1.0000
  C   C2428     1.0  0.80693  0.91504  0.29076  1.0000
  H   H4302     1.0  0.71930  0.95173  0.30710  1.0000
  H   H4303     1.0  0.67683  0.97164  0.38856  1.0000
  C   C2429     1.0  0.82088  0.93423  0.98862  1.0000
  C   C2430     1.0  0.71317  0.95893  0.12171  1.0000
  H   H4304     1.0  0.85199  0.93622  0.33686  1.0000
  C   C2431     1.0  0.82041  0.92692  0.26871  1.0000
  H   H4305     1.0  0.75277  0.99559  0.19055  1.0000
  C   C2432     1.0  0.77384  0.89078  0.47744  1.0000
  H   H4306     1.0  0.66691  0.94283  0.36409  1.0000
  H   H4307     1.0  0.80150  0.94101  0.31991  1.0000
  H   H4308     1.0  0.82640  0.94646  0.31408  1.0000
  H   H4309     1.0  0.74235  0.80719  0.00159  1.0000
  H   H4310     1.0  0.70760  0.90414  0.47493  1.0000
  H   H4311     1.0  0.78353  0.91080  0.33527  1.0000
  C   C2433     1.0  0.71338  0.81046  0.00130  1.0000
  C   C2434     1.0  0.68623  0.83459  0.99705  1.0000
  C   C2435     1.0  0.68169  0.94819  0.37079  1.0000
  H   H4312     1.0  0.68137  0.85935  0.22649  1.0000
  H   H4313     1.0  0.79615  0.87942  0.98998  1.0000
  H   H4314     1.0  0.74195  0.96807  0.30970  1.0000
  H   H4315     1.0  0.82658  0.93408  0.36564  1.0000
  C   C2436     1.0  0.70049  0.97158  0.46552  1.0000
  H   H4316     1.0  0.82211  0.94146  0.27156  1.0000
  H   H4317     1.0  0.82788  0.93167  0.46853  1.0000
  C   C2437     1.0  0.67028  0.78629  0.06538  1.0000
  C   C2438     1.0  0.71400  0.00090  0.42913  1.0000
  Fe  Fe269     1.0  0.69529  0.76863  0.16909  1.0000
  H   H4318     1.0  0.91034  0.77337  0.39800  1.0000
  C   C2439     1.0  0.71455  0.97593  0.10417  1.0000
  Fe  Fe270     1.0  0.67568  0.79328  0.19681  1.0000
  H   H4319     1.0  0.77446  0.90533  0.47602  1.0000
  H   H4320     1.0  0.73332  0.75863  0.24596  1.0000
  C   C2440     1.0  0.98166  0.76140  0.23769  1.0000
  H   H4321     1.0  0.74414  0.76127  0.36097  1.0000
  H   H4322     1.0  0.73376  0.91931  0.06904  1.0000
  H   H4323     1.0  0.71155  0.96178  0.14314  1.0000
  H   H4324     1.0  0.68476  0.84140  0.44453  1.0000
  N   N136      1.0  0.77491  0.88879  0.06675  1.0000
  C   C2441     1.0  0.76959  0.87028  0.08061  1.0000
  C   C2442     1.0  0.78822  0.90153  0.08430  1.0000
  C   C2443     1.0  0.75691  0.89511  0.06490  1.0000
  C   C2444     1.0  0.78369  0.88918  0.03884  1.0000
  C   C2445     1.0  0.79600  0.87588  0.03356  1.0000
  C   C2446     1.0  0.75301  0.85611  0.06860  1.0000
  C   C2447     1.0  0.75927  0.91393  0.05083  1.0000
  C   C2448     1.0  0.80785  0.89786  0.08923  1.0000
  C   C2449     1.0  0.81809  0.90924  0.11148  1.0000
  H   H4325     1.0  0.94761  0.80626  0.43223  1.0000
  C   C2450     1.0  0.75228  0.83702  0.07905  1.0000
  C   C2451     1.0  0.74003  0.91837  0.04878  1.0000
  H   H4326     1.0  0.76526  0.87118  0.10199  1.0000
  H   H4327     1.0  0.78206  0.86456  0.08141  1.0000
  H   H4328     1.0  0.79179  0.91546  0.07560  1.0000
  H   H4329     1.0  0.78091  0.90197  0.10410  1.0000
  H   H4330     1.0  0.75018  0.89514  0.08522  1.0000
  H   H4331     1.0  0.74613  0.88572  0.05330  1.0000
  H   H4332     1.0  0.77236  0.88622  0.02383  1.0000
  H   H4333     1.0  0.79261  0.90307  0.03309  1.0000
  H   H4334     1.0  0.78678  0.86185  0.03373  1.0000
  H   H4335     1.0  0.80685  0.87634  0.04872  1.0000
  H   H4336     1.0  0.73920  0.85873  0.07479  1.0000
  H   H4337     1.0  0.75433  0.85669  0.04640  1.0000
  H   H4338     1.0  0.76557  0.91455  0.03020  1.0000
  H   H4339     1.0  0.76856  0.92469  0.06205  1.0000
  H   H4340     1.0  0.80654  0.88364  0.09537  1.0000
  H   H4341     1.0  0.81719  0.90158  0.07074  1.0000
  H   H4342     1.0  0.80960  0.90579  0.13072  1.0000
  H   H4343     1.0  0.83227  0.90663  0.11415  1.0000
  H   H4344     1.0  0.82044  0.92382  0.10632  1.0000
  H   H4345     1.0  0.82536  0.76332  0.19986  1.0000
  H   H4346     1.0  0.70401  0.82248  0.45882  1.0000
  H   H4347     1.0  0.85127  0.93500  0.30142  1.0000
  C   C2452     1.0  0.70758  0.85867  0.47970  1.0000
  H   H4348     1.0  0.68859  0.78568  0.26555  1.0000
  C   C2453     1.0  0.72922  0.80277  0.99004  1.0000
  C   C2454     1.0  0.67654  0.78004  0.30637  1.0000
  C   C2455     1.0  0.68000  0.97605  0.06198  1.0000
  C   C2456     1.0  0.67918  0.77053  0.01808  1.0000
  N   N137      1.0  0.68569  0.97966  0.34715  1.0000
  H   H4349     1.0  0.72681  0.89992  0.32975  1.0000
  H   H4350     1.0  0.80358  0.88027  0.32955  1.0000
  H   H4351     1.0  0.70055  0.80520  0.98949  1.0000
  H   H4352     1.0  0.72025  0.96957  0.34783  1.0000
  C   C2457     1.0  0.73231  0.97016  0.01776  1.0000
  H   H4353     1.0  0.71287  0.95918  0.06975  1.0000
  C   C2458     1.0  0.71884  0.87562  0.30735  1.0000
  S   S546      1.0  0.66549  0.77157  0.16759  1.0000
  H   H4354     1.0  0.67607  0.84198  0.00485  1.0000
  H   H4355     1.0  0.93964  0.76840  0.20548  1.0000
  H   H4356     1.0  0.70174  0.85530  0.20826  1.0000
  C   C2459     1.0  0.69298  0.98652  0.46685  1.0000
  C   C2460     1.0  0.70193  0.83612  0.03956  1.0000
  H   H4357     1.0  0.66635  0.81292  0.34492  1.0000
  C   C2461     1.0  0.66494  0.97630  0.34044  1.0000
  H   H4358     1.0  0.70059  0.94799  0.11654  1.0000
  H   H4359     1.0  0.81565  0.96909  0.35009  1.0000
  C   C2462     1.0  0.83086  0.91204  0.32415  1.0000
  N   N138      1.0  0.71674  0.98641  0.05326  1.0000
  H   H4360     1.0  0.68903  0.77695  0.31438  1.0000
  H   H4361     1.0  0.72563  0.98720  0.11222  1.0000
  H   H4362     1.0  0.94669  0.78201  0.40111  1.0000
  H   H4363     1.0  0.69529  0.96020  0.47961  1.0000
  H   H4364     1.0  0.72076  0.86681  0.02425  1.0000
  H   H4365     1.0  0.67985  0.84987  0.09528  1.0000
  H   H4366     1.0  0.92768  0.80374  0.41075  1.0000
  H   H4367     1.0  0.67934  0.82019  0.00276  1.0000
  H   H4368     1.0  0.69617  0.98253  0.30577  1.0000
  Fe  Fe271     1.0  0.68250  0.77292  0.38618  1.0000
  C   C2463     1.0  0.94149  0.76521  0.33034  1.0000
  H   H4369     1.0  0.70348  0.87380  0.31277  1.0000
  C   C2464     1.0  0.97650  0.76219  0.21101  1.0000
  H   H4370     1.0  0.73568  0.97384  0.07497  1.0000
  C   C2465     1.0  0.67627  0.78493  0.27872  1.0000
  H   H4371     1.0  0.67277  0.94201  0.41297  1.0000
  C   C2466     1.0  0.92553  0.76533  0.21643  1.0000
  H   H4372     1.0  0.92649  0.77474  0.23294  1.0000
  H   H4373     1.0  0.77621  0.98996  0.46986  1.0000
  H   H4374     1.0  0.67969  0.92421  0.39619  1.0000
  C   C2467     1.0  0.68308  0.77556  0.06582  1.0000
  H   H4375     1.0  0.78865  0.88924  0.47683  1.0000
  H   H4376     1.0  0.66961  0.84786  0.46866  1.0000
  H   H4377     1.0  0.78517  0.00120  0.17075  1.0000
  H   H4378     1.0  0.68411  0.00102  0.39281  1.0000
  H   H4379     1.0  0.92382  0.79512  0.44527  1.0000
  C   C2468     1.0  0.68305  0.93903  0.39804  1.0000
  H   H4380     1.0  0.69670  0.75874  0.04314  1.0000
  H   H4381     1.0  0.76644  0.88439  0.45977  1.0000
  C   C2469     1.0  0.75058  0.97243  0.00045  1.0000
  C   C2470     1.0  0.81699  0.94127  0.35599  1.0000
  H   H4382     1.0  0.76326  0.97511  0.01309  1.0000
  H   H4383     1.0  0.69530  0.98849  0.02514  1.0000
  H   H4384     1.0  0.73112  0.80760  0.46594  1.0000
  C   C2471     1.0  0.72017  0.97328  0.07463  1.0000
  C   C2472     1.0  0.79665  0.90600  0.33711  1.0000
  H   H4385     1.0  0.72621  0.95414  0.11886  1.0000
  H   H4386     1.0  0.81478  0.87015  0.00236  1.0000
  H   H4387     1.0  0.73165  0.95910  0.03280  1.0000
  C   C2473     1.0  0.71314  0.86113  0.00620  1.0000
  C   C2474     1.0  0.86713  0.91851  0.32034  1.0000
  H   H4388     1.0  0.72209  0.88350  0.28790  1.0000
  H   H4389     1.0  0.88073  0.92937  0.31835  1.0000
  H   H4390     1.0  0.72507  0.97240  0.28636  1.0000
  C   C2475     1.0  0.93654  0.77915  0.41877  1.0000
  Fe  Fe272     1.0  0.67741  0.79250  0.13451  1.0000
  C   C2476     1.0  0.69732  0.97942  0.04189  1.0000
  C   C2477     1.0  0.77777  0.87466  0.35437  1.0000
  H   H4391     1.0  0.83455  0.92399  0.26835  1.0000
  H   H4392     1.0  0.69619  0.96627  0.03274  1.0000
  H   H4393     1.0  0.72622  0.99006  0.32757  1.0000
  H   H4394     1.0  0.95512  0.77375  0.33753  1.0000
  C   C2478     1.0  0.73256  0.80304  0.30149  1.0000
  H   H4395     1.0  0.73594  0.79574  0.31945  1.0000
  H   H4396     1.0  0.76483  0.87959  0.35742  1.0000
  C   C2479     1.0  0.79085  0.88560  0.33165  1.0000
  H   H4397     1.0  0.76640  0.76427  0.32143  1.0000
  H   H4398     1.0  0.79995  0.98762  0.47595  1.0000
  C   C2480     1.0  0.71796  0.97567  0.32831  1.0000
  C   C2481     1.0  0.69645  0.97406  0.32414  1.0000
  C   C2482     1.0  0.92584  0.76129  0.35264  1.0000
  H   H4399     1.0  0.68050  0.96522  0.07694  1.0000
  H   H4400     1.0  0.70066  0.97922  0.10644  1.0000
  H   H4401     1.0  0.73316  0.83586  0.01005  1.0000
  H   H4402     1.0  0.78933  0.97625  0.43275  1.0000
  H   H4403     1.0  0.68239  0.82292  0.30039  1.0000
  H   H4404     1.0  0.94626  0.75656  0.38116  1.0000
  H   H4405     1.0  0.70127  0.86773  0.00429  1.0000
  C   C2483     1.0  0.71958  0.83135  0.99938  1.0000
  N   N139      1.0  0.70523  0.84081  0.00989  1.0000
  H   H4406     1.0  0.68925  0.96007  0.31875  1.0000
  C   C2484     1.0  0.79257  0.94510  0.99009  1.0000
  H   H4407     1.0  0.80032  0.90708  0.35855  1.0000
  H   H4408     1.0  0.67852  0.83942  0.20773  1.0000
  H   H4409     1.0  0.88881  0.75647  0.37122  1.0000
  H   H4410     1.0  0.96770  0.75585  0.46992  1.0000
  H   H4411     1.0  0.72806  0.87986  0.34833  1.0000
  C   C2485     1.0  0.69465  0.99930  0.35146  1.0000
  H   H4412     1.0  0.73899  0.89530  0.99771  1.0000
  H   H4413     1.0  0.74622  0.89011  0.32252  1.0000
  H   H4414     1.0  0.80289  0.93686  0.36699  1.0000
  C   C2486     1.0  0.69974  0.00120  0.44859  1.0000
  C   C2487     1.0  0.73075  0.88698  0.32831  1.0000
  H   H4415     1.0  0.69038  0.87502  0.46113  1.0000
  C   C2488     1.0  0.69870  0.87493  0.47940  1.0000
  C   C2489     1.0  0.67071  0.82728  0.35004  1.0000
  C   C2490     1.0  0.93364  0.79714  0.42725  1.0000
  H   H4416     1.0  0.90780  0.76347  0.43073  1.0000
  H   H4417     1.0  0.72818  0.76073  0.21098  1.0000
  H   H4418     1.0  0.70957  0.00123  0.35801  1.0000
  H   H4419     1.0  0.68044  0.84528  0.30047  1.0000
  C   C2491     1.0  0.70413  0.82574  0.48039  1.0000
  H   H4420     1.0  0.78524  0.99744  0.42206  1.0000
  H   H4421     1.0  0.72439  0.78782  0.99149  1.0000
  H   H4422     1.0  0.72520  0.89343  0.46261  1.0000
  S   S547      1.0  0.68359  0.75880  0.98983  1.0000
  C   C2492     1.0  0.79409  0.99105  0.43488  1.0000
  H   H4423     1.0  0.68994  0.85937  0.04768  1.0000
  H   H4424     1.0  0.80934  0.99586  0.42786  1.0000
  C   C2493     1.0  0.80648  0.88009  0.00611  1.0000
  H   H4425     1.0  0.81659  0.89377  0.00530  1.0000
  H   H4426     1.0  0.70524  0.85398  0.08899  1.0000
  H   H4427     1.0  0.74132  0.86487  0.98569  1.0000
  C   C2494     1.0  0.81726  0.93528  0.48125  1.0000
  C   C2495     1.0  0.79163  0.99518  0.46421  1.0000
  H   H4428     1.0  0.77584  0.94777  0.47816  1.0000
  H   H4429     1.0  0.81482  0.75425  0.23221  1.0000
  N   N140      1.0  0.69391  0.84023  0.48503  1.0000
  H   H4430     1.0  0.66476  0.00267  0.32147  1.0000
  C   C2496     1.0  0.75827  0.76486  0.73594  1.0000
  C   C2497     1.0  0.67469  0.78340  0.56665  1.0000
  H   H4431     1.0  0.69757  0.98097  0.87770  1.0000
  C   C2498     1.0  0.76286  0.88197  0.50313  1.0000
  C   C2499     1.0  0.68722  0.83985  0.56315  1.0000
  Fe  Fe273     1.0  0.71484  0.79751  0.90750  1.0000
  H   H4432     1.0  0.72407  0.89570  0.85362  1.0000
  S   S548      1.0  0.73789  0.82362  0.90572  1.0000
  H   H4433     1.0  0.72108  0.89473  0.49828  1.0000
  C   C2500     1.0  0.73072  0.89596  0.83329  1.0000
  H   H4434     1.0  0.67338  0.84953  0.84040  1.0000
  H   H4435     1.0  0.70934  0.86076  0.85220  1.0000
  H   H4436     1.0  0.69773  0.82599  0.72833  1.0000
  S   S549      1.0  0.70753  0.78086  0.87144  1.0000
  S   S550      1.0  0.71921  0.77459  0.93299  1.0000
  Fe  Fe274     1.0  0.75537  0.96281  0.90534  1.0000
  S   S551      1.0  0.78355  0.96303  0.88549  1.0000
  S   S552      1.0  0.75213  0.98954  0.91828  1.0000
  Fe  Fe275     1.0  0.73984  0.92196  0.90244  1.0000
  S   S553      1.0  0.76712  0.91956  0.88276  1.0000
  S   S554      1.0  0.71492  0.89725  0.91034  1.0000
  Fe  Fe276     1.0  0.78111  0.93888  0.91378  1.0000
  S   S555      1.0  0.80396  0.93380  0.94066  1.0000
  Fe  Fe277     1.0  0.76620  0.94383  0.85671  1.0000
  S   S556      1.0  0.76241  0.94341  0.81121  1.0000
  S   S557      1.0  0.75379  0.93973  0.93470  1.0000
  S   S558      1.0  0.73801  0.94530  0.87543  1.0000
  Fe  Fe278     1.0  0.71315  0.80558  0.67031  1.0000
  S   S559      1.0  0.73872  0.83045  0.66959  1.0000
  S   S560      1.0  0.70439  0.78495  0.70493  1.0000
  S   S561      1.0  0.70956  0.78414  0.63986  1.0000
  Fe  Fe279     1.0  0.77325  0.97499  0.61511  1.0000
  S   S562      1.0  0.80321  0.97271  0.61956  1.0000
  C   C2501     1.0  0.73951  0.83628  0.58763  1.0000
  Fe  Fe280     1.0  0.75663  0.93376  0.62778  1.0000
  S   S563      1.0  0.78577  0.92993  0.63253  1.0000
  S   S564      1.0  0.73164  0.90851  0.63109  1.0000
  Fe  Fe281     1.0  0.79107  0.95487  0.65627  1.0000
  S   S565      1.0  0.80586  0.95701  0.69614  1.0000
  Fe  Fe282     1.0  0.79371  0.94806  0.59535  1.0000
  S   S566      1.0  0.81033  0.94004  0.56083  1.0000
  S   S567      1.0  0.76141  0.95819  0.65302  1.0000
  S   S568      1.0  0.76431  0.95092  0.58947  1.0000
  C   C2502     1.0  0.73653  0.85208  0.65877  1.0000
  C   C2503     1.0  0.75277  0.86691  0.65757  1.0000
  C   C2504     1.0  0.75149  0.88427  0.64952  1.0000
  C   C2505     1.0  0.73399  0.88700  0.64206  1.0000
  C   C2506     1.0  0.71783  0.87215  0.64291  1.0000
  C   C2507     1.0  0.71907  0.85484  0.65121  1.0000
  H   H4437     1.0  0.76647  0.86492  0.66259  1.0000
  H   H4438     1.0  0.76406  0.89547  0.64912  1.0000
  H   H4439     1.0  0.70420  0.87402  0.63715  1.0000
  H   H4440     1.0  0.70646  0.84368  0.65159  1.0000
  C   C2508     1.0  0.77503  0.94913  0.77966  1.0000
  C   C2509     1.0  0.76446  0.94647  0.75634  1.0000
  C   C2510     1.0  0.77366  0.94920  0.73069  1.0000
  C   C2511     1.0  0.79363  0.95478  0.72800  1.0000
  C   C2512     1.0  0.80422  0.95793  0.75129  1.0000
  C   C2513     1.0  0.79499  0.95524  0.77699  1.0000
  H   H4441     1.0  0.74901  0.94192  0.75813  1.0000
  H   H4442     1.0  0.76529  0.94674  0.71304  1.0000
  H   H4443     1.0  0.81968  0.96232  0.74945  1.0000
  H   H4444     1.0  0.80333  0.95755  0.79470  1.0000
  H   H4445     1.0  0.74252  0.87356  0.83999  1.0000
  H   H4446     1.0  0.71031  0.97995  0.59050  1.0000
  C   C2514     1.0  0.79029  0.94475  0.51483  1.0000
  C   C2515     1.0  0.80613  0.94032  0.52600  1.0000
  C   C2516     1.0  0.81942  0.93551  0.50896  1.0000
  C   C2517     1.0  0.68665  0.83704  0.96625  1.0000
  N   N141      1.0  0.69278  0.99670  0.57603  1.0000
  H   H4447     1.0  0.77993  0.94856  0.52774  1.0000
  H   H4448     1.0  0.83168  0.93208  0.51725  1.0000
  C   C2518     1.0  0.72747  0.81952  0.81554  1.0000
  C   C2519     1.0  0.73104  0.84382  0.90687  1.0000
  C   C2520     1.0  0.74517  0.85993  0.90954  1.0000
  C   C2521     1.0  0.74028  0.87631  0.91066  1.0000
  C   C2522     1.0  0.72122  0.87675  0.90893  1.0000
  C   C2523     1.0  0.70701  0.86060  0.90638  1.0000
  C   C2524     1.0  0.71193  0.84416  0.90511  1.0000
  H   H4449     1.0  0.75997  0.85975  0.91105  1.0000
  H   H4450     1.0  0.75125  0.88850  0.91370  1.0000
  H   H4451     1.0  0.69685  0.83988  0.58001  1.0000
  H   H4452     1.0  0.70095  0.83180  0.90278  1.0000
  Fe  Fe283     1.0  0.69676  0.76394  0.67391  1.0000
  H   H4453     1.0  0.72974  0.83093  0.57146  1.0000
  H   H4454     1.0  0.77342  0.76609  0.74044  1.0000
  H   H4455     1.0  0.71909  0.86133  0.49421  1.0000
  S   S569      1.0  0.68753  0.75761  0.48922  1.0000
  C   C2525     1.0  0.74874  0.91172  0.54475  1.0000
  H   H4456     1.0  0.66660  0.78447  0.49958  1.0000
  C   C2526     1.0  0.73116  0.91869  0.54999  1.0000
  H   H4457     1.0  0.74015  0.78330  0.73270  1.0000
  H   H4458     1.0  0.70385  0.84989  0.73277  1.0000
  H   H4459     1.0  0.76001  0.98722  0.85876  1.0000
  C   C2527     1.0  0.73106  0.98706  0.93759  1.0000
  C   C2528     1.0  0.71721  0.97050  0.93992  1.0000
  H   H4460     1.0  0.67441  0.82454  0.51585  1.0000
  H   H4461     1.0  0.71982  0.95885  0.93067  1.0000
  C   C2529     1.0  0.68619  0.77142  0.56674  1.0000
  N   N142      1.0  0.77639  0.89444  0.74203  1.0000
  C   C2530     1.0  0.78620  0.90211  0.71549  1.0000
  C   C2531     1.0  0.75641  0.89710  0.74384  1.0000
  C   C2532     1.0  0.78783  0.90487  0.76382  1.0000
  C   C2533     1.0  0.77585  0.87483  0.74695  1.0000
  C   C2534     1.0  0.76858  0.86198  0.72428  1.0000
  C   C2535     1.0  0.80743  0.90192  0.71169  1.0000
  C   C2536     1.0  0.77867  0.90095  0.79264  1.0000
  C   C2537     1.0  0.74552  0.89664  0.71748  1.0000
  C   C2538     1.0  0.72485  0.89715  0.72299  1.0000
  C   C2539     1.0  0.76912  0.84275  0.73218  1.0000
  C   C2540     1.0  0.81486  0.90755  0.68290  1.0000
  C   C2541     1.0  0.79254  0.91015  0.81339  1.0000
  H   H4462     1.0  0.78578  0.91643  0.71248  1.0000
  H   H4463     1.0  0.77844  0.89502  0.69857  1.0000
  H   H4464     1.0  0.74716  0.88722  0.75865  1.0000
  H   H4465     1.0  0.75685  0.91054  0.75162  1.0000
  H   H4466     1.0  0.79061  0.91962  0.75928  1.0000
  H   H4467     1.0  0.80217  0.90227  0.76462  1.0000
  H   H4468     1.0  0.79031  0.87347  0.75173  1.0000
  H   H4469     1.0  0.76659  0.86905  0.76495  1.0000
  H   H4470     1.0  0.77773  0.86619  0.70579  1.0000
  H   H4471     1.0  0.75356  0.86140  0.72017  1.0000
  H   H4472     1.0  0.81655  0.91166  0.72484  1.0000
  H   H4473     1.0  0.80928  0.88831  0.71630  1.0000
  H   H4474     1.0  0.77451  0.88636  0.79823  1.0000
  H   H4475     1.0  0.76578  0.90606  0.79435  1.0000
  H   H4476     1.0  0.75248  0.90860  0.70413  1.0000
  H   H4477     1.0  0.74517  0.88447  0.70636  1.0000
  H   H4478     1.0  0.72442  0.90957  0.73333  1.0000
  H   H4479     1.0  0.71765  0.89717  0.70369  1.0000
  H   H4480     1.0  0.71689  0.88513  0.73547  1.0000
  H   H4481     1.0  0.75957  0.83747  0.75010  1.0000
  H   H4482     1.0  0.76411  0.83381  0.71547  1.0000
  H   H4483     1.0  0.78394  0.84230  0.73639  1.0000
  H   H4484     1.0  0.80666  0.89796  0.66875  1.0000
  H   H4485     1.0  0.81363  0.92133  0.67760  1.0000
  H   H4486     1.0  0.83017  0.90767  0.68077  1.0000
  H   H4487     1.0  0.78545  0.90730  0.83366  1.0000
  H   H4488     1.0  0.80550  0.90507  0.81323  1.0000
  H   H4489     1.0  0.79687  0.92496  0.80946  1.0000
  S   S570      1.0  0.68394  0.80957  0.66644  1.0000
  H   H4490     1.0  0.70398  0.82775  0.53764  1.0000
  H   H4491     1.0  0.69661  0.83022  0.95667  1.0000
  C   C2542     1.0  0.69045  0.76406  0.54268  1.0000
  H   H4492     1.0  0.74898  0.75660  0.75228  1.0000
  H   H4493     1.0  0.78002  0.90397  0.52563  1.0000
  H   H4494     1.0  0.67492  0.82768  0.56599  1.0000
  C   C2543     1.0  0.71244  0.86307  0.83024  1.0000
  H   H4495     1.0  0.70739  0.97079  0.54450  1.0000
  C   C2544     1.0  0.74360  0.81298  0.82786  1.0000
  C   C2545     1.0  0.67264  0.78198  0.80980  1.0000
  H   H4496     1.0  0.97183  0.77300  0.70840  1.0000
  H   H4497     1.0  0.67964  0.97796  0.54639  1.0000
  H   H4498     1.0  0.72349  0.83504  0.97789  1.0000
  C   C2546     1.0  0.70082  0.83323  0.76981  1.0000
  H   H4499     1.0  0.70157  0.86971  0.82280  1.0000
  H   H4500     1.0  0.75859  0.78921  0.75660  1.0000
  S   S571      1.0  0.76771  0.00207  0.60258  1.0000
  H   H4501     1.0  0.75133  0.98318  0.82543  1.0000
  C   C2547     1.0  0.72974  0.00321  0.85103  1.0000
  H   H4502     1.0  0.81706  0.99650  0.55901  1.0000
  H   H4503     1.0  0.73788  0.75528  0.70545  1.0000
  H   H4504     1.0  0.71962  0.89359  0.97497  1.0000
  C   C2548     1.0  0.66686  0.82906  0.95547  1.0000
  C   C2549     1.0  0.69808  0.83966  0.53652  1.0000
  H   H4505     1.0  0.78076  0.94822  0.98014  1.0000
  C   C2550     1.0  0.68463  0.83808  0.51281  1.0000
  C   C2551     1.0  0.73213  0.87718  0.82640  1.0000
  H   H4506     1.0  0.75221  0.83083  0.58621  1.0000
  H   H4507     1.0  0.79387  0.89098  0.62426  1.0000
  H   H4508     1.0  0.76088  0.92057  0.55472  1.0000
  H   H4509     1.0  0.73403  0.93280  0.54182  1.0000
  C   C2552     1.0  0.69171  0.83274  0.82701  1.0000
  C   C2553     1.0  0.75335  0.75655  0.70835  1.0000
  H   H4510     1.0  0.67570  0.84766  0.51529  1.0000
  H   H4511     1.0  0.71585  0.99358  0.53112  1.0000
  H   H4512     1.0  0.72212  0.86304  0.96326  1.0000
  H   H4513     1.0  0.73180  0.83146  0.60718  1.0000
  H   H4514     1.0  0.74864  0.88459  0.50306  1.0000
  H   H4515     1.0  0.76478  0.79297  0.72128  1.0000
  Fe  Fe284     1.0  0.70866  0.75742  0.89876  1.0000
  N   N143      1.0  0.76247  0.88440  0.55463  1.0000
  C   C2554     1.0  0.77382  0.88913  0.52834  1.0000
  C   C2555     1.0  0.77511  0.89263  0.57682  1.0000
  C   C2556     1.0  0.75577  0.86417  0.55846  1.0000
  C   C2557     1.0  0.74517  0.89184  0.55511  1.0000
  H   H4516     1.0  0.72178  0.83753  0.73622  1.0000
  C   C2558     1.0  0.72768  0.00207  0.94970  1.0000
  C   C2559     1.0  0.74563  0.85687  0.58592  1.0000
  H   H4517     1.0  0.81496  0.75826  0.72306  1.0000
  H   H4518     1.0  0.68519  0.83170  0.77208  1.0000
  H   H4519     1.0  0.78646  0.88355  0.52827  1.0000
  H   H4520     1.0  0.78107  0.90734  0.57261  1.0000
  H   H4521     1.0  0.76661  0.89161  0.59599  1.0000
  H   H4522     1.0  0.76786  0.85802  0.55511  1.0000
  H   H4523     1.0  0.74541  0.85851  0.54304  1.0000
  H   H4524     1.0  0.73350  0.88354  0.54345  1.0000
  H   H4525     1.0  0.73892  0.89094  0.57594  1.0000
  H   H4526     1.0  0.68186  0.85207  0.56394  1.0000
  H   H4527     1.0  0.73058  0.82094  0.79360  1.0000
  H   H4528     1.0  0.73262  0.86164  0.58919  1.0000
  H   H4529     1.0  0.75527  0.86129  0.60253  1.0000
  H   H4530     1.0  0.71852  0.91032  0.54025  1.0000
  H   H4531     1.0  0.72786  0.91855  0.57186  1.0000
  H   H4532     1.0  0.76087  0.86719  0.50236  1.0000
  C   C2560     1.0  0.67250  0.78118  0.51806  1.0000
  H   H4533     1.0  0.74319  0.89396  0.96239  1.0000
  H   H4534     1.0  0.68886  0.81969  0.81719  1.0000
  H   H4535     1.0  0.74278  0.75700  0.96841  1.0000
  C   C2561     1.0  0.67284  0.78463  0.78153  1.0000
  H   H4536     1.0  0.75103  0.76126  0.80567  1.0000
  C   C2562     1.0  0.68367  0.76891  0.51824  1.0000
  C   C2563     1.0  0.68777  0.00083  0.60433  1.0000
  H   H4537     1.0  0.71394  0.80896  0.82009  1.0000
  C   C2564     1.0  0.71198  0.84874  0.78695  1.0000
  C   C2565     1.0  0.69588  0.98441  0.96436  1.0000
  H   H4538     1.0  0.73507  0.00356  0.48899  1.0000
  H   H4539     1.0  0.81969  0.76045  0.51336  1.0000
  H   H4540     1.0  0.74371  0.79967  0.82009  1.0000
  H   H4541     1.0  0.68876  0.95644  0.95473  1.0000
  C   C2566     1.0  0.69965  0.96917  0.95347  1.0000
  C   C2567     1.0  0.81361  0.75463  0.70176  1.0000
  C   C2568     1.0  0.72772  0.86854  0.98238  1.0000
  H   H4542     1.0  0.70324  0.82008  0.77571  1.0000
  C   C2569     1.0  0.67713  0.98090  0.56758  1.0000
  H   H4543     1.0  0.82442  0.76495  0.68939  1.0000
  C   C2570     1.0  0.80338  0.89356  0.60592  1.0000
  H   H4544     1.0  0.68726  0.00353  0.66001  1.0000
  C   C2571     1.0  0.80560  0.93806  0.97540  1.0000
  C   C2572     1.0  0.66792  0.78826  0.54221  1.0000
  Fe  Fe285     1.0  0.67995  0.78759  0.63699  1.0000
  H   H4545     1.0  0.98416  0.76981  0.75336  1.0000
  S   S572      1.0  0.66689  0.76628  0.66909  1.0000
  Fe  Fe286     1.0  0.67494  0.78781  0.69905  1.0000
  C   C2573     1.0  0.71005  0.00077  0.96295  1.0000
  H   H4546     1.0  0.76727  0.00248  0.50419  1.0000
  C   C2574     1.0  0.97621  0.76102  0.71393  1.0000
  H   H4547     1.0  0.73782  0.87789  0.80548  1.0000
  H   H4548     1.0  0.75229  0.98360  0.98513  1.0000
  H   H4549     1.0  0.73035  0.75989  0.84655  1.0000
  H   H4550     1.0  0.69218  0.82904  0.84872  1.0000
  H   H4551     1.0  0.68913  0.87450  0.49723  1.0000
  S   S573      1.0  0.68474  0.79408  0.92313  1.0000
  S   S574      1.0  0.67328  0.98285  0.97913  1.0000
  H   H4552     1.0  0.74155  0.81142  0.84999  1.0000
  H   H4553     1.0  0.69135  0.76745  0.58543  1.0000
  Fe  Fe287     1.0  0.68843  0.76968  0.94642  1.0000
  H   H4554     1.0  0.72213  0.90118  0.81854  1.0000
  H   H4555     1.0  0.75770  0.82265  0.82271  1.0000
  H   H4556     1.0  0.80913  0.90833  0.60194  1.0000
  H   H4557     1.0  0.68570  0.78209  0.81966  1.0000
  C   C2575     1.0  0.67403  0.84034  0.82396  1.0000
  H   H4558     1.0  0.72821  0.83542  0.50731  1.0000
  H   H4559     1.0  0.75208  0.91312  0.52284  1.0000
  H   H4560     1.0  0.78793  0.87019  0.58661  1.0000
  C   C2576     1.0  0.75524  0.78374  0.73655  1.0000
  H   H4561     1.0  0.67371  0.00028  0.91147  1.0000
  H   H4562     1.0  0.76108  0.76690  0.69305  1.0000
  H   H4563     1.0  0.83105  0.92886  0.97761  1.0000
  H   H4564     1.0  0.70992  0.85215  0.53479  1.0000
  C   C2577     1.0  0.73260  0.88909  0.97934  1.0000
  C   C2578     1.0  0.72661  0.83782  0.82650  1.0000
  C   C2579     1.0  0.79247  0.88493  0.58205  1.0000
  H   H4565     1.0  0.72725  0.85250  0.77970  1.0000
  H   H4566     1.0  0.81561  0.88775  0.60943  1.0000
  H   H4567     1.0  0.94635  0.76248  0.75937  1.0000
  H   H4568     1.0  0.67482  0.84811  0.80465  1.0000
  C   C2580     1.0  0.70647  0.83699  0.74002  1.0000
  H   H4569     1.0  0.79144  0.76758  0.69462  1.0000
  H   H4570     1.0  0.78351  0.99728  0.54561  1.0000
  H   H4571     1.0  0.74521  0.90541  0.83301  1.0000
  H   H4572     1.0  0.73265  0.80720  0.96864  1.0000
  H   H4573     1.0  0.69641  0.81296  0.49150  1.0000
  C   C2581     1.0  0.71689  0.98432  0.54807  1.0000
  N   N144      1.0  0.71057  0.84535  0.81709  1.0000
  H   H4574     1.0  0.74077  0.84722  0.82077  1.0000
  H   H4575     1.0  0.72598  0.83645  0.84884  1.0000
  H   H4576     1.0  0.68606  0.78685  0.76972  1.0000
  H   H4577     1.0  0.72140  0.99443  0.83591  1.0000
  C   C2582     1.0  0.79444  0.99547  0.53070  1.0000
  H   H4578     1.0  0.67726  0.96849  0.57970  1.0000
  H   H4579     1.0  0.69222  0.86085  0.90512  1.0000
  H   H4580     1.0  0.73902  0.97319  0.56455  1.0000
  H   H4581     1.0  0.80271  0.88773  0.56450  1.0000
  Fe  Fe288     1.0  0.67761  0.77596  0.88819  1.0000
  H   H4582     1.0  0.71396  0.75805  0.75760  1.0000
  C   C2583     1.0  0.72557  0.82998  0.48723  1.0000
  C   C2584     1.0  0.71122  0.99108  0.57520  1.0000
  C   C2585     1.0  0.67536  0.98911  0.89903  1.0000
  H   H4583     1.0  0.74080  0.97704  0.52867  1.0000
  H   H4584     1.0  0.69199  0.00339  0.84689  1.0000
  C   C2586     1.0  0.73735  0.98250  0.54788  1.0000
  H   H4585     1.0  0.67937  0.98833  0.61560  1.0000
  H   H4586     1.0  0.78695  0.98569  0.51643  1.0000
  H   H4587     1.0  0.76835  0.75648  0.65241  1.0000
  C   C2587     1.0  0.80827  0.98696  0.54533  1.0000
  H   H4588     1.0  0.81792  0.98274  0.53075  1.0000
  H   H4589     1.0  0.80004  0.97487  0.55735  1.0000
  H   H4590     1.0  0.70668  0.86061  0.78118  1.0000
  C   C2588     1.0  0.69568  0.99340  0.88671  1.0000
  S   S575      1.0  0.66784  0.79204  0.59662  1.0000
  S   S576      1.0  0.67527  0.98664  0.49153  1.0000
  H   H4591     1.0  0.66760  0.83091  0.93329  1.0000
  H   H4592     1.0  0.69095  0.85158  0.96018  1.0000
  H   H4593     1.0  0.80541  0.76286  0.88726  1.0000
  H   H4594     1.0  0.79731  0.99633  0.68408  1.0000
  H   H4595     1.0  0.77726  0.00268  0.67021  1.0000
  H   H4596     1.0  0.74819  0.81647  0.49069  1.0000
  C   C2589     1.0  0.98299  0.75913  0.73954  1.0000
  H   H4597     1.0  0.71207  0.99849  0.62810  1.0000
  H   H4598     1.0  0.74761  0.99586  0.55006  1.0000
  H   H4599     1.0  0.93202  0.75459  0.78964  1.0000
  H   H4600     1.0  0.72472  0.80257  0.50120  1.0000
  H   H4601     1.0  0.97247  0.75938  0.96978  1.0000
  H   H4602     1.0  0.72970  0.99420  0.86900  1.0000
  H   H4603     1.0  0.67256  0.97672  0.91228  1.0000
  H   H4604     1.0  0.77457  0.99821  0.83010  1.0000
  H   H4605     1.0  0.70577  0.99678  0.90302  1.0000
  C   C2590     1.0  0.75965  0.99352  0.83853  1.0000
  H   H4606     1.0  0.72347  0.00212  0.58097  1.0000
  C   C2591     1.0  0.73278  0.81308  0.48623  1.0000
  C   C2592     1.0  0.78797  0.94432  0.48673  1.0000
  H   H4607     1.0  0.66469  0.98685  0.88320  1.0000
  H   H4608     1.0  0.69885  0.75437  0.54307  1.0000
