data_image0
_chemical_formula_structural       H2SFeSHFeSFeH5CSC2H4FeH4SCFeHCSC2HSH3S2CSH4NCH2C2SNHC2HCSFeH2FeHC6HCH2CH2C3H6CHC2HCFeHCHCHFeH3SCH4CH2C3HCH4C2NHCH3C4H2C2HSHFeH6CH5CH5C2H4SC3HS2NH2CH3NC8H2FeCH2CHSFeH3CH11CHCH2C4SCH7C2SH4SH3CH3CH7C2H2CH4C2NH2CH2CHCH2SFeHFeSH3C2HSH2SHC2HSC7H6SFeS2FeS2Fe2HS2FeCSHCH3C3H2CH4C4H3CH2C3H5SH2CHC2H2CNC10H10SH6SHC2HCHSH2CHCH4CH2CH2CFeC2HC2HCH3FeH3CH2CHCH4CHS2HCHCH9FeCHCHCNC4HCHNH7SH4C2H2C2HCH2CH2CHC2H3C2H2CHCHSH4CHNH4CHCHCH2CH6CH5CH3CH2CFeSCFeSFeS2H4C2SCH2CHCSFeHFeSH2C2H2C5HC2SHSHCHC2H2CNC6SH3CH3C2HCH3CH2FeH3NHC2HSCHC2HSCH5CH4C3H6SHCHCH2CHC3H2FeH2SHCH4SCHCH2FeH2SCFeHSH6NSH2SCHSCH2CFeCFeSH2SHC2H3C2H2NH2C3H6CHCH2CH2CHCH5CHCHCH4CSHCHC2H3CH3CHCH3C2HCH3CHCHC2H2NH2CHCHCH3CHCHC4SCHC2H4CFeS2FeS2FeSFeS2CHC3HC6H4CH2CHCHNCH3C2H9C6H4C3H5CH4CH2CH4CH2FeC2H2CHCH2SCHC2H2C2H2CH4CH2C3H3CHSH7C2H3CH3NHSH2SH4CHCH2C2HCHNCHC2H2CHNHC2H7CH2CHC3H8CH3CH8CH2NH4C2HCH2SH2FeCHC2HSHFeHC3H7CFeS2Fe2S3HCHCSHCH3NH3CHC3HCHCHCSH2C2H5FeC2H5C2H2FeSCHSHC2H4C3H3CH2CHC2H2NHC4HCH2C3H11CH6CH5CH4NCHC2SCH2SCH2CHC3H5C2H7CHCH6CH4C2S2H2CH2S2FeS2H6C2H2C3FeH2C3HCH2CHC3H2C2HCH2CHSH2C3H3FeHC2H11C3HSH2SHSC2NH5CSCHCFeNC6HC2H3CH11C2H6CHSH2NC8HC2H3CH14CHCH3CH4CHC3H2C2H2NH3FeCH4CH11CHC2HCH2CNFeS2FeS2FeSFeS3H2C2SCFeSHSC3HSHSCH3CHSH4FeH2C2FeHC3H2C6H4C6H4C2H5C2HSC2H2CNC2HC2H5CH4CHCHC2FeCH3CHCHC3H2C2H2CHFeH3CH3CH2FeH2C3HCNC10HCH22C2H4NC9HC2H17C2SNHCHS2CHFeH2C2HSH2FeHSHSH4CH2C3H3FeCH4CHFeH2CH2CH3CHCSC3H3SCHCH9CH3C2H2CH10CH5C3SH11CH3C3HSFeHSFeSFeS2Fe2S3C3H4C2H2C3HCHSHC2H3S2H2C2FeSHSHSFeSC3H3C2H2C6H4C2H2C8H5C2H4SH4C2H2SH5FeHCHCH2CH2NC10H23SH3CHCH3CH2CH5CHC2H2CH3C2HSH2CH4SH5C2NCNH2CHCH4CFeCH3CHCH3FeC2H3CSH2SC3H2CNC2H3CNHC2SHCH2S2CHSH3CH2CHCHFeC2Fe2C3HCHCHCSHC2FeH4CH2C4H2CHSCHC2H5C2H3NH5CH4CH13C2HCNH3CH2FeS2FeSFeS3HCHCHCHSFeSFeS2Fe2S3C2H5C2H5C4SHCHCHC2HC7H5NH2CH2CSCHCNCHC7H2CFeHC2H11C3HC2SH2CH9CH2FeHC3H3C2SH5CH2C2HC2H7NC12H20CH7NC12H18CH8SHC2H2C2H3C2HC3SFeH3CH8CHNHFeSC2HSHCHC2HS2CH4CSHCH2CNCH6C4HFeH2SH5FeHSCH3CFeH4CH7CHCH5CSC2HSH4SH3CH4NH2C3H3CHFeCHC3H7CH2C2HC3SCH2SC2H2CH4SH4CH2CH2CHSHCH2C2HCH2CH3CHFeCSH2CH3NH6CSH2CFeC2H3CH2C2SH3CHCHC2H4SH3CHC2H2CH4CH6CNH2CHC4H2CH2CH10SFeH4C2
_chemical_formula_sum              "H1536 S192 Fe96 C864 N48"
_cell_length_a       44.4644
_cell_length_b       44.4697
_cell_length_c       50.7267
_cell_angle_alpha    90.0265
_cell_angle_beta     90.0742
_cell_angle_gamma    119.71

_space_group_name_H-M_alt    "P 1"
_space_group_IT_number       1

loop_
  _space_group_symop_operation_xyz
  'x, y, z'

loop_
  _atom_site_type_symbol
  _atom_site_label
  _atom_site_symmetry_multiplicity
  _atom_site_fract_x
  _atom_site_fract_y
  _atom_site_fract_z
  _atom_site_occupancy
  H   H1        1.0  0.44389  0.02329  0.11791  1.0000
  H   H2        1.0  0.29234  0.36598  0.07165  1.0000
  S   S1        1.0  0.17461  0.43181  0.08015  1.0000
  Fe  Fe1       1.0  0.44790  0.45175  0.24856  1.0000
  S   S2        1.0  0.39555  0.40430  0.24926  1.0000
  H   H3        1.0  0.46085  0.39372  0.14853  1.0000
  Fe  Fe2       1.0  0.38075  0.43231  0.21955  1.0000
  S   S3        1.0  0.35166  0.40811  0.18130  1.0000
  Fe  Fe3       1.0  0.38457  0.43284  0.28115  1.0000
  H   H4        1.0  0.05645  0.42806  0.09023  1.0000
  H   H5        1.0  0.44329  0.30858  0.00650  1.0000
  H   H6        1.0  0.25024  0.44990  0.01989  1.0000
  H   H7        1.0  0.22755  0.33572  0.10801  1.0000
  H   H8        1.0  0.48127  0.06246  0.25238  1.0000
  C   C1        1.0  0.46102  0.33380  0.99848  1.0000
  S   S4        1.0  0.46427  0.29232  0.25797  1.0000
  C   C2        1.0  0.34801  0.50846  0.17037  1.0000
  C   C3        1.0  0.04987  0.35516  0.02269  1.0000
  H   H9        1.0  0.47589  0.45219  0.18795  1.0000
  H   H10       1.0  0.21785  0.40283  0.06889  1.0000
  H   H11       1.0  0.42916  0.32709  0.27759  1.0000
  H   H12       1.0  0.03563  0.37271  0.12916  1.0000
  Fe  Fe4       1.0  0.41717  0.49933  0.24983  1.0000
  H   H13       1.0  0.46275  0.34495  0.16961  1.0000
  H   H14       1.0  0.04954  0.41129  0.00693  1.0000
  H   H15       1.0  0.50507  0.18676  0.18943  1.0000
  H   H16       1.0  0.20749  0.39510  0.16831  1.0000
  S   S5        1.0  0.27422  0.37937  0.00814  1.0000
  C   C4        1.0  0.33305  0.48065  0.19170  1.0000
  Fe  Fe5       1.0  0.39583  0.44748  0.03179  1.0000
  H   H17       1.0  0.23879  0.47257  0.25801  1.0000
  C   C5        1.0  0.17184  0.44718  0.04845  1.0000
  S   S6        1.0  0.36058  0.39030  0.03329  1.0000
  C   C6        1.0  0.33305  0.31201  0.22636  1.0000
  C   C7        1.0  0.18884  0.34701  0.07206  1.0000
  H   H18       1.0  0.32654  0.49061  0.20962  1.0000
  S   S7        1.0  0.16110  0.41812  0.21559  1.0000
  H   H19       1.0  0.24898  0.33799  0.06020  1.0000
  H   H20       1.0  0.34530  0.30909  0.11659  1.0000
  H   H21       1.0  0.38679  0.33366  0.10026  1.0000
  S   S8        1.0  0.41388  0.47836  0.06997  1.0000
  S   S9        1.0  0.13818  0.48629  0.11678  1.0000
  C   C8        1.0  0.16975  0.47183  0.99735  1.0000
  S   S10       1.0  0.36285  0.45485  0.25157  1.0000
  H   H22       1.0  0.37622  0.29478  0.20027  1.0000
  H   H23       1.0  0.17365  0.34536  0.08984  1.0000
  H   H24       1.0  0.06647  0.36763  0.07653  1.0000
  H   H25       1.0  0.30760  0.38005  0.26079  1.0000
  N   N1        1.0  0.51125  0.38006  0.07697  1.0000
  C   C9        1.0  0.16351  0.47343  0.04517  1.0000
  H   H26       1.0  0.23731  0.38191  0.05275  1.0000
  H   H27       1.0  0.30183  0.42152  0.10357  1.0000
  C   C10       1.0  0.26001  0.36640  0.28229  1.0000
  C   C11       1.0  0.16143  0.41891  0.27001  1.0000
  S   S11       1.0  0.13044  0.47702  0.18131  1.0000
  N   N2        1.0  0.52003  0.10359  0.16550  1.0000
  H   H28       1.0  0.18599  0.41342  0.02810  1.0000
  C   C12       1.0  0.26617  0.34545  0.07770  1.0000
  C   C13       1.0  0.28650  0.35741  0.27109  1.0000
  H   H29       1.0  0.41926  0.33130  0.14000  1.0000
  C   C14       1.0  0.26930  0.31404  0.08582  1.0000
  S   S12       1.0  0.04378  0.43929  0.14470  1.0000
  Fe  Fe6       1.0  0.39263  0.38787  0.00017  1.0000
  H   H30       1.0  0.39988  0.33033  0.22203  1.0000
  H   H31       1.0  0.41877  0.28225  0.20465  1.0000
  Fe  Fe7       1.0  0.33088  0.39932  0.00173  1.0000
  H   H32       1.0  0.36517  0.35376  0.15214  1.0000
  C   C15       1.0  0.36910  0.42824  0.15053  1.0000
  C   C16       1.0  0.39759  0.46170  0.14881  1.0000
  C   C17       1.0  0.45143  0.42178  0.07546  1.0000
  C   C18       1.0  0.39623  0.45829  0.10068  1.0000
  C   C19       1.0  0.36742  0.42502  0.10236  1.0000
  C   C20       1.0  0.35396  0.41012  0.12714  1.0000
  H   H33       1.0  0.35206  0.47237  0.19701  1.0000
  C   C21       1.0  0.22392  0.38158  0.07132  1.0000
  H   H34       1.0  0.35523  0.41084  0.08462  1.0000
  H   H35       1.0  0.33183  0.38432  0.12819  1.0000
  C   C22       1.0  0.04928  0.42927  0.06943  1.0000
  H   H36       1.0  0.43562  0.42467  0.05978  1.0000
  H   H37       1.0  0.47103  0.12188  0.18822  1.0000
  C   C23       1.0  0.47391  0.33554  0.25537  1.0000
  C   C24       1.0  0.45164  0.34569  0.26670  1.0000
  C   C25       1.0  0.45845  0.37990  0.26402  1.0000
  H   H38       1.0  0.33969  0.31708  0.18457  1.0000
  H   H39       1.0  0.15839  0.48476  0.06221  1.0000
  H   H40       1.0  0.27466  0.48080  0.23689  1.0000
  H   H41       1.0  0.44168  0.38773  0.27344  1.0000
  H   H42       1.0  0.15322  0.50122  0.27579  1.0000
  H   H43       1.0  0.24352  0.29203  0.09115  1.0000
  C   C26       1.0  0.48744  0.07639  0.15208  1.0000
  H   H44       1.0  0.15681  0.50654  0.01754  1.0000
  C   C27       1.0  0.15926  0.43519  0.24691  1.0000
  C   C28       1.0  0.08566  0.37009  0.03647  1.0000
  H   H45       1.0  0.24835  0.41877  0.18498  1.0000
  C   C29       1.0  0.15619  0.47861  0.27430  1.0000
  Fe  Fe8       1.0  0.15724  0.44806  0.11722  1.0000
  H   H46       1.0  0.43764  0.38721  0.20651  1.0000
  C   C30       1.0  0.28439  0.45488  0.08662  1.0000
  H   H47       1.0  0.50665  0.33256  0.11996  1.0000
  C   C31       1.0  0.48722  0.40391  0.24963  1.0000
  H   H48       1.0  0.45753  0.27078  0.07886  1.0000
  Fe  Fe9       1.0  0.09868  0.44992  0.14575  1.0000
  H   H49       1.0  0.49634  0.36480  0.13082  1.0000
  H   H50       1.0  0.06505  0.42230  0.05662  1.0000
  H   H51       1.0  0.16305  0.39553  0.26838  1.0000
  S   S13       1.0  0.11543  0.40990  0.14434  1.0000
  C   C32       1.0  0.17876  0.43312  0.02596  1.0000
  H   H52       1.0  0.45071  0.28045  0.04541  1.0000
  H   H53       1.0  0.27366  0.33587  0.25670  1.0000
  H   H54       1.0  0.18340  0.43443  0.98349  1.0000
  H   H55       1.0  0.47365  0.29598  0.16240  1.0000
  C   C33       1.0  0.25214  0.35799  0.10077  1.0000
  H   H56       1.0  0.48197  0.30252  0.19750  1.0000
  H   H57       1.0  0.48500  0.08592  0.13230  1.0000
  C   C34       1.0  0.15647  0.46506  0.24928  1.0000
  C   C35       1.0  0.48439  0.04041  0.14786  1.0000
  C   C36       1.0  0.28242  0.41920  0.08868  1.0000
  H   H58       1.0  0.46354  0.17088  0.17408  1.0000
  C   C37       1.0  0.23109  0.39559  0.11841  1.0000
  H   H59       1.0  0.26748  0.45483  0.07048  1.0000
  H   H60       1.0  0.40554  0.37857  0.13566  1.0000
  H   H61       1.0  0.49542  0.45665  0.15610  1.0000
  H   H62       1.0  0.20607  0.37225  0.12336  1.0000
  C   C38       1.0  0.50972  0.39388  0.23864  1.0000
  C   C39       1.0  0.46199  0.28785  0.18228  1.0000
  N   N3        1.0  0.05038  0.36514  0.99421  1.0000
  H   H63       1.0  0.19305  0.32444  0.07193  1.0000
  C   C40       1.0  0.47026  0.28168  0.05966  1.0000
  H   H64       1.0  0.51910  0.35179  0.23121  1.0000
  H   H65       1.0  0.36400  0.35678  0.20303  1.0000
  H   H66       1.0  0.37849  0.30301  0.15407  1.0000
  C   C41       1.0  0.24239  0.42430  0.29060  1.0000
  C   C42       1.0  0.17732  0.44505  0.00053  1.0000
  C   C43       1.0  0.23498  0.41555  0.16583  1.0000
  C   C44       1.0  0.44875  0.01425  0.13702  1.0000
  H   H67       1.0  0.24904  0.37372  0.26548  1.0000
  H   H68       1.0  0.23941  0.34254  0.29166  1.0000
  C   C45       1.0  0.25265  0.40577  0.14428  1.0000
  C   C46       1.0  0.48925  0.17271  0.17203  1.0000
  H   H69       1.0  0.48616  0.41943  0.04747  1.0000
  S   S14       1.0  0.19416  0.47364  0.15094  1.0000
  H   H70       1.0  0.35852  0.35152  0.10359  1.0000
  Fe  Fe10      1.0  0.15062  0.44010  0.17827  1.0000
  H   H71       1.0  0.29214  0.41521  0.06950  1.0000
  H   H72       1.0  0.09946  0.39877  0.03656  1.0000
  H   H73       1.0  0.51219  0.18759  0.29031  1.0000
  H   H74       1.0  0.32310  0.28364  0.22631  1.0000
  H   H75       1.0  0.45330  0.25990  0.18475  1.0000
  H   H76       1.0  0.31064  0.31656  0.22595  1.0000
  C   C47       1.0  0.49530  0.34266  0.99304  1.0000
  H   H77       1.0  0.34777  0.32334  0.24487  1.0000
  H   H78       1.0  0.51412  0.32722  0.04440  1.0000
  H   H79       1.0  0.19393  0.34812  0.29647  1.0000
  H   H80       1.0  0.10239  0.36158  0.02656  1.0000
  H   H81       1.0  0.10169  0.37513  0.98349  1.0000
  C   C48       1.0  0.08142  0.35809  0.06516  1.0000
  H   H82       1.0  0.06618  0.40887  0.30774  1.0000
  H   H83       1.0  0.50373  0.04213  0.13325  1.0000
  H   H84       1.0  0.27902  0.42810  0.14138  1.0000
  H   H85       1.0  0.23604  0.44035  0.16086  1.0000
  H   H86       1.0  0.29789  0.34912  0.28709  1.0000
  C   C49       1.0  0.16632  0.34329  0.04815  1.0000
  C   C50       1.0  0.48498  0.34298  0.07073  1.0000
  H   H87       1.0  0.18106  0.34761  0.02953  1.0000
  H   H88       1.0  0.41238  0.27961  0.16938  1.0000
  H   H89       1.0  0.45627  0.34400  0.20401  1.0000
  H   H90       1.0  0.40920  0.47637  0.16647  1.0000
  S   S15       1.0  0.43080  0.44486  0.00076  1.0000
  C   C51       1.0  0.36782  0.33538  0.11352  1.0000
  C   C52       1.0  0.16268  0.48580  0.01978  1.0000
  C   C53       1.0  0.32164  0.48319  0.08093  1.0000
  H   H91       1.0  0.25513  0.38366  0.15179  1.0000
  S   S16       1.0  0.43784  0.47915  0.28163  1.0000
  S   S17       1.0  0.40700  0.34597  0.00234  1.0000
  N   N4        1.0  0.24738  0.38860  0.09482  1.0000
  H   H92       1.0  0.22402  0.41582  0.11377  1.0000
  H   H93       1.0  0.49222  0.03719  0.23073  1.0000
  C   C54       1.0  0.15928  0.46294  0.29734  1.0000
  H   H94       1.0  0.41137  0.38943  0.18158  1.0000
  H   H95       1.0  0.27639  0.46191  0.10526  1.0000
  H   H96       1.0  0.15464  0.47793  0.23192  1.0000
  N   N5        1.0  0.41444  0.34205  0.18112  1.0000
  C   C55       1.0  0.43036  0.38061  0.18538  1.0000
  C   C56       1.0  0.38748  0.32327  0.20213  1.0000
  C   C57       1.0  0.44267  0.33293  0.18513  1.0000
  C   C58       1.0  0.39940  0.33063  0.15375  1.0000
  C   C59       1.0  0.38468  0.35180  0.13990  1.0000
  C   C60       1.0  0.46346  0.40349  0.16898  1.0000
  C   C61       1.0  0.43110  0.29376  0.18543  1.0000
  C   C62       1.0  0.35594  0.32900  0.20230  1.0000
  H   H97       1.0  0.44971  0.37831  0.05611  1.0000
  H   H98       1.0  0.47391  0.38408  0.10187  1.0000
  Fe  Fe11      1.0  0.17194  0.50906  0.15247  1.0000
  C   C63       1.0  0.16143  0.43269  0.29512  1.0000
  H   H99       1.0  0.05596  0.45629  0.06479  1.0000
  H   H100      1.0  0.21916  0.39275  0.99482  1.0000
  C   C64       1.0  0.49967  0.31895  0.06322  1.0000
  H   H101      1.0  0.06806  0.32938  0.06627  1.0000
  S   S18       1.0  0.36443  0.45700  0.00168  1.0000
  Fe  Fe12      1.0  0.51088  0.28584  0.25180  1.0000
  H   H102      1.0  0.48609  0.40337  0.17823  1.0000
  H   H103      1.0  0.28725  0.32054  0.10283  1.0000
  H   H104      1.0  0.46668  0.33096  0.08747  1.0000
  C   C65       1.0  0.41122  0.47647  0.12406  1.0000
  H   H105      1.0  0.48808  0.02975  0.16656  1.0000
  H   H106      1.0  0.51559  0.39247  0.03541  1.0000
  H   H107      1.0  0.16344  0.42021  0.31276  1.0000
  H   H108      1.0  0.28855  0.47518  0.28256  1.0000
  H   H109      1.0  0.27083  0.36428  0.11726  1.0000
  H   H110      1.0  0.14350  0.31680  0.04767  1.0000
  H   H111      1.0  0.30933  0.45770  0.18432  1.0000
  H   H112      1.0  0.50192  0.18787  0.15398  1.0000
  H   H113      1.0  0.50385  0.32440  0.99718  1.0000
  H   H114      1.0  0.27976  0.30594  0.06906  1.0000
  H   H115      1.0  0.48064  0.26535  0.05185  1.0000
  C   C66       1.0  0.47239  0.38989  0.98307  1.0000
  H   H116      1.0  0.15667  0.36193  0.04961  1.0000
  C   C67       1.0  0.47153  0.44106  0.16779  1.0000
  H   H117      1.0  0.10726  0.36852  0.07454  1.0000
  H   H118      1.0  0.09117  0.41839  0.99895  1.0000
  C   C68       1.0  0.27075  0.46534  0.00531  1.0000
  C   C69       1.0  0.49548  0.08324  0.21272  1.0000
  C   C70       1.0  0.27059  0.45105  0.27195  1.0000
  C   C71       1.0  0.29028  0.50336  0.01345  1.0000
  S   S19       1.0  0.49534  0.44632  0.24473  1.0000
  C   C72       1.0  0.06353  0.40359  0.99272  1.0000
  H   H119      1.0  0.33068  0.47810  0.06188  1.0000
  H   H120      1.0  0.22369  0.40306  0.27773  1.0000
  H   H121      1.0  0.03465  0.36377  0.03464  1.0000
  H   H122      1.0  0.46397  0.07176  0.16301  1.0000
  H   H123      1.0  0.22770  0.43642  0.29889  1.0000
  H   H124      1.0  0.28576  0.44021  0.26270  1.0000
  H   H125      1.0  0.51027  0.42438  0.09407  1.0000
  C   C73       1.0  0.25414  0.46124  0.24977  1.0000
  C   C74       1.0  0.44964  0.35756  0.99395  1.0000
  S   S20       1.0  0.43401  0.47776  0.21685  1.0000
  H   H126      1.0  0.06635  0.44957  0.30507  1.0000
  H   H127      1.0  0.33934  0.48429  0.09687  1.0000
  H   H128      1.0  0.46937  0.06655  0.20437  1.0000
  H   H129      1.0  0.25882  0.46225  0.98551  1.0000
  S   S21       1.0  0.51961  0.26078  0.21647  1.0000
  H   H130      1.0  0.06945  0.31209  0.00010  1.0000
  H   H131      1.0  0.23682  0.43834  0.23753  1.0000
  H   H132      1.0  0.44995  0.44283  0.15830  1.0000
  C   C75       1.0  0.50294  0.35973  0.24134  1.0000
  H   H133      1.0  0.35229  0.49643  0.15266  1.0000
  H   H134      1.0  0.43373  0.50201  0.12299  1.0000
  H   H135      1.0  0.24135  0.50175  0.02096  1.0000
  C   C76       1.0  0.48475  0.13634  0.17030  1.0000
  H   H136      1.0  0.49714  0.10754  0.22013  1.0000
  H   H137      1.0  0.30016  0.50454  0.03365  1.0000
  H   H138      1.0  0.51748  0.31888  0.07848  1.0000
  H   H139      1.0  0.48404  0.43730  0.30327  1.0000
  H   H140      1.0  0.46790  0.12375  0.15292  1.0000
  H   H141      1.0  0.46860  0.34183  0.05378  1.0000
  H   H142      1.0  0.28890  0.45498  0.00453  1.0000
  C   C77       1.0  0.46995  0.40349  0.06412  1.0000
  C   C78       1.0  0.27673  0.39560  0.30310  1.0000
  H   H143      1.0  0.30183  0.41645  0.29523  1.0000
  H   H144      1.0  0.43381  0.40651  0.09175  1.0000
  C   C79       1.0  0.49906  0.06395  0.23643  1.0000
  H   H145      1.0  0.24732  0.50342  0.06442  1.0000
  H   H146      1.0  0.32312  0.50878  0.07976  1.0000
  H   H147      1.0  0.47038  0.44802  0.08281  1.0000
  H   H148      1.0  0.03607  0.32648  0.02488  1.0000
  C   C80       1.0  0.52017  0.13773  0.16704  1.0000
  C   C81       1.0  0.51755  0.36061  0.12396  1.0000
  N   N6        1.0  0.25492  0.41065  0.31278  1.0000
  H   H149      1.0  0.51252  0.24910  0.11635  1.0000
  H   H150      1.0  0.49562  0.36227  0.31322  1.0000
  C   C82       1.0  0.49207  0.39849  0.08560  1.0000
  H   H151      1.0  0.17781  0.37552  0.30779  1.0000
  H   H152      1.0  0.22999  0.49180  0.21178  1.0000
  C   C83       1.0  0.51832  0.37517  0.98263  1.0000
  H   H153      1.0  0.52103  0.32743  0.30174  1.0000
  C   C84       1.0  0.50053  0.32251  0.57739  1.0000
  H   H154      1.0  0.33202  0.40426  0.63151  1.0000
  H   H155      1.0  0.45488  0.36300  0.37175  1.0000
  S   S22       1.0  0.13354  0.39742  0.36788  1.0000
  Fe  Fe13      1.0  0.10058  0.39789  0.40119  1.0000
  H   H156      1.0  0.47425  0.43280  0.63423  1.0000
  Fe  Fe14      1.0  0.17355  0.40958  0.39922  1.0000
  S   S23       1.0  0.20968  0.38830  0.39727  1.0000
  H   H157      1.0  0.52100  0.31613  0.58256  1.0000
  H   H158      1.0  0.50560  0.33596  0.51305  1.0000
  H   H159      1.0  0.50382  0.38317  0.42434  1.0000
  C   C85       1.0  0.22650  0.38746  0.42824  1.0000
  C   C86       1.0  0.20648  0.38090  0.45102  1.0000
  H   H160      1.0  0.18023  0.37597  0.44962  1.0000
  S   S24       1.0  0.16891  0.49351  0.46499  1.0000
  H   H161      1.0  0.08920  0.43778  0.52320  1.0000
  H   H162      1.0  0.23189  0.36766  0.34036  1.0000
  S   S25       1.0  0.41347  0.49021  0.56824  1.0000
  H   H163      1.0  0.34526  0.30838  0.47833  1.0000
  C   C87       1.0  0.07389  0.46998  0.47770  1.0000
  C   C88       1.0  0.22451  0.38437  0.32885  1.0000
  H   H164      1.0  0.15725  0.34972  0.52483  1.0000
  S   S26       1.0  0.41160  0.47443  0.43258  1.0000
  C   C89       1.0  0.38703  0.32829  0.44977  1.0000
  C   C90       1.0  0.37424  0.42457  0.35069  1.0000
  C   C91       1.0  0.40199  0.45833  0.35331  1.0000
  C   C92       1.0  0.05385  0.37605  0.49202  1.0000
  C   C93       1.0  0.39677  0.45434  0.40138  1.0000
  C   C94       1.0  0.36907  0.42052  0.39882  1.0000
  C   C95       1.0  0.35787  0.40576  0.37360  1.0000
  H   H165      1.0  0.31941  0.45584  0.39181  1.0000
  H   H166      1.0  0.32881  0.46680  0.56329  1.0000
  H   H167      1.0  0.35588  0.40591  0.41620  1.0000
  H   H168      1.0  0.33613  0.37977  0.37183  1.0000
  H   H169      1.0  0.38170  0.30257  0.41242  1.0000
  H   H170      1.0  0.50449  0.39492  0.55515  1.0000
  S   S27       1.0  0.13835  0.40358  0.43276  1.0000
  Fe  Fe15      1.0  0.38881  0.39168  0.50830  1.0000
  S   S28       1.0  0.42632  0.44825  0.50392  1.0000
  S   S29       1.0  0.40535  0.35258  0.51742  1.0000
  Fe  Fe16      1.0  0.32717  0.40278  0.50411  1.0000
  S   S30       1.0  0.36022  0.46026  0.49955  1.0000
  S   S31       1.0  0.26993  0.38055  0.50776  1.0000
  Fe  Fe17      1.0  0.39066  0.44636  0.47152  1.0000
  Fe  Fe18      1.0  0.39164  0.45538  0.53235  1.0000
  H   H171      1.0  0.05237  0.48040  0.53041  1.0000
  S   S32       1.0  0.35548  0.38894  0.47414  1.0000
  S   S33       1.0  0.35632  0.39884  0.53851  1.0000
  Fe  Fe19      1.0  0.09540  0.45695  0.64346  1.0000
  C   C96       1.0  0.49780  0.45779  0.62995  1.0000
  S   S34       1.0  0.13762  0.49428  0.61672  1.0000
  H   H172      1.0  0.26357  0.51313  0.59876  1.0000
  C   C97       1.0  0.16773  0.47669  0.49694  1.0000
  H   H173      1.0  0.05938  0.40664  0.45791  1.0000
  H   H174      1.0  0.32797  0.48605  0.36544  1.0000
  H   H175      1.0  0.51936  0.12996  0.55068  1.0000
  C   C98       1.0  0.44726  0.36395  0.50722  1.0000
  C   C99       1.0  0.46110  0.34292  0.51441  1.0000
  C   C100      1.0  0.17352  0.43676  0.52650  1.0000
  H   H176      1.0  0.16351  0.49625  0.56166  1.0000
  H   H177      1.0  0.49595  0.31087  0.41717  1.0000
  C   C101      1.0  0.46712  0.39379  0.49230  1.0000
  H   H178      1.0  0.44577  0.31973  0.52588  1.0000
  H   H179      1.0  0.28403  0.38433  0.31985  1.0000
  H   H180      1.0  0.18630  0.34654  0.62861  1.0000
  H   H181      1.0  0.45642  0.40977  0.48626  1.0000
  C   C102      1.0  0.26018  0.39286  0.43010  1.0000
  C   C103      1.0  0.27391  0.39187  0.45469  1.0000
  C   C104      1.0  0.25357  0.38424  0.47734  1.0000
  C   C105      1.0  0.21993  0.37900  0.47557  1.0000
  H   H182      1.0  0.27571  0.39774  0.41258  1.0000
  H   H183      1.0  0.29996  0.39629  0.45592  1.0000
  H   H184      1.0  0.20421  0.37320  0.49307  1.0000
  C   C106      1.0  0.34849  0.30830  0.45662  1.0000
  H   H185      1.0  0.40276  0.37632  0.37093  1.0000
  H   H186      1.0  0.38864  0.35598  0.32407  1.0000
  C   C107      1.0  0.17020  0.45385  0.54870  1.0000
  C   C108      1.0  0.36727  0.44157  0.60344  1.0000
  C   C109      1.0  0.39851  0.47249  0.59995  1.0000
  H   H187      1.0  0.09630  0.42563  0.47880  1.0000
  H   H188      1.0  0.35147  0.42818  0.58659  1.0000
  H   H189      1.0  0.49950  0.45324  0.43122  1.0000
  H   H190      1.0  0.52070  0.45437  0.63245  1.0000
  H   H191      1.0  0.42313  0.31940  0.37622  1.0000
  S   S35       1.0  0.17380  0.43978  0.58074  1.0000
  H   H192      1.0  0.51427  0.15954  0.33188  1.0000
  H   H193      1.0  0.33674  0.28100  0.44990  1.0000
  C   C110      1.0  0.07226  0.47299  0.53450  1.0000
  H   H194      1.0  0.43432  0.37909  0.33025  1.0000
  C   C111      1.0  0.02446  0.40539  0.39854  1.0000
  C   C112      1.0  0.39250  0.32975  0.41950  1.0000
  H   H195      1.0  0.31266  0.42671  0.34967  1.0000
  H   H196      1.0  0.47591  0.47801  0.60103  1.0000
  C   C113      1.0  0.42671  0.41181  0.58875  1.0000
  N   N7        1.0  0.23296  0.38225  0.58628  1.0000
  C   C114      1.0  0.23373  0.34914  0.59126  1.0000
  C   C115      1.0  0.20713  0.37661  0.56465  1.0000
  C   C116      1.0  0.26854  0.40902  0.57690  1.0000
  C   C117      1.0  0.22520  0.39621  0.61089  1.0000
  C   C118      1.0  0.19004  0.37260  0.62438  1.0000
  C   C119      1.0  0.27276  0.44427  0.56776  1.0000
  C   C120      1.0  0.17412  0.34033  0.56286  1.0000
  C   C121      1.0  0.14675  0.34093  0.54494  1.0000
  C   C122      1.0  0.49093  0.33663  0.60147  1.0000
  C   C123      1.0  0.50133  0.45236  0.31981  1.0000
  H   H197      1.0  0.23783  0.33911  0.57219  1.0000
  H   H198      1.0  0.28912  0.47738  0.47757  1.0000
  H   H199      1.0  0.19869  0.39619  0.56620  1.0000
  H   H200      1.0  0.21949  0.38084  0.54486  1.0000
  H   H201      1.0  0.27690  0.39811  0.56057  1.0000
  H   H202      1.0  0.28813  0.41566  0.59278  1.0000
  H   H203      1.0  0.24611  0.40357  0.62571  1.0000
  H   H204      1.0  0.22518  0.42070  0.60637  1.0000
  H   H205      1.0  0.31103  0.49113  0.54797  1.0000
  H   H206      1.0  0.16862  0.37027  0.61168  1.0000
  S   S36       1.0  0.11226  0.41711  0.64248  1.0000
  H   H207      1.0  0.27386  0.45999  0.58515  1.0000
  H   H208      1.0  0.25128  0.44125  0.55486  1.0000
  H   H209      1.0  0.18097  0.32141  0.55446  1.0000
  H   H210      1.0  0.16200  0.33053  0.58230  1.0000
  H   H211      1.0  0.12397  0.31449  0.54344  1.0000
  H   H212      1.0  0.13799  0.35849  0.55316  1.0000
  S   S37       1.0  0.11932  0.45474  0.39846  1.0000
  H   H213      1.0  0.46010  0.35979  0.63369  1.0000
  C   C124      1.0  0.16444  0.33163  0.33227  1.0000
  C   C125      1.0  0.30752  0.46234  0.37506  1.0000
  H   H214      1.0  0.08178  0.49459  0.57409  1.0000
  C   C126      1.0  0.35615  0.42810  0.62891  1.0000
  H   H215      1.0  0.30018  0.46098  0.32016  1.0000
  S   S38       1.0  0.04480  0.35718  0.40723  1.0000
  H   H216      1.0  0.27189  0.40924  0.36617  1.0000
  H   H217      1.0  0.20852  0.32845  0.59874  1.0000
  C   C127      1.0  0.51544  0.36398  0.32758  1.0000
  H   H218      1.0  0.10236  0.48095  0.47969  1.0000
  C   C128      1.0  0.48339  0.29827  0.33131  1.0000
  H   H219      1.0  0.30405  0.45160  0.53311  1.0000
  H   H220      1.0  0.50913  0.48858  0.50315  1.0000
  H   H221      1.0  0.48600  0.45845  0.33394  1.0000
  H   H222      1.0  0.07037  0.45234  0.43659  1.0000
  C   C129      1.0  0.02479  0.41081  0.32958  1.0000
  H   H223      1.0  0.28705  0.46724  0.38299  1.0000
  H   H224      1.0  0.35650  0.49451  0.64231  1.0000
  C   C130      1.0  0.26197  0.35162  0.61055  1.0000
  H   H225      1.0  0.24413  0.46248  0.46992  1.0000
  H   H226      1.0  0.05724  0.37781  0.51370  1.0000
  C   C131      1.0  0.48919  0.46221  0.55404  1.0000
  Fe  Fe20      1.0  0.15931  0.46043  0.42829  1.0000
  C   C132      1.0  0.41320  0.47306  0.37850  1.0000
  C   C133      1.0  0.41819  0.49000  0.62221  1.0000
  H   H227      1.0  0.46769  0.46814  0.55555  1.0000
  C   C134      1.0  0.08743  0.50637  0.43626  1.0000
  C   C135      1.0  0.49489  0.35196  0.50703  1.0000
  H   H228      1.0  0.02228  0.39046  0.34351  1.0000
  C   C136      1.0  0.06499  0.43912  0.52026  1.0000
  H   H229      1.0  0.04825  0.44994  0.57218  1.0000
  H   H230      1.0  0.42839  0.42581  0.60726  1.0000
  H   H231      1.0  0.46611  0.46023  0.41707  1.0000
  Fe  Fe21      1.0  0.15646  0.45612  0.61773  1.0000
  H   H232      1.0  0.46491  0.39709  0.59902  1.0000
  H   H233      1.0  0.06963  0.35413  0.46005  1.0000
  H   H234      1.0  0.37549  0.33922  0.41120  1.0000
  C   C137      1.0  0.06741  0.41216  0.47892  1.0000
  H   H235      1.0  0.51381  0.23925  0.61783  1.0000
  H   H236      1.0  0.10109  0.37337  0.48641  1.0000
  C   C138      1.0  0.16551  0.48242  0.54483  1.0000
  H   H237      1.0  0.06251  0.33211  0.49108  1.0000
  C   C139      1.0  0.03186  0.36855  0.58398  1.0000
  H   H238      1.0  0.48502  0.27462  0.32698  1.0000
  H   H239      1.0  0.48154  0.44308  0.53766  1.0000
  H   H240      1.0  0.47188  0.34432  0.59486  1.0000
  H   H241      1.0  0.47898  0.29894  0.35280  1.0000
  C   C140      1.0  0.47513  0.30890  0.62352  1.0000
  H   H242      1.0  0.37247  0.37582  0.59642  1.0000
  S   S39       1.0  0.19765  0.46729  0.39656  1.0000
  S   S40       1.0  0.16204  0.48302  0.32820  1.0000
  H   H243      1.0  0.43466  0.49922  0.38025  1.0000
  C   C141      1.0  0.42903  0.34641  0.38045  1.0000
  H   H244      1.0  0.26154  0.36389  0.62946  1.0000
  C   C142      1.0  0.40259  0.35241  0.36448  1.0000
  H   H245      1.0  0.37601  0.33028  0.36740  1.0000
  H   H246      1.0  0.26221  0.45358  0.33739  1.0000
  H   H247      1.0  0.04917  0.42093  0.38919  1.0000
  H   H248      1.0  0.50390  0.36208  0.34733  1.0000
  H   H249      1.0  0.39209  0.36011  0.57325  1.0000
  H   H250      1.0  0.40141  0.36128  0.60806  1.0000
  H   H251      1.0  0.50881  0.08124  0.50411  1.0000
  H   H252      1.0  0.33449  0.32044  0.44733  1.0000
  H   H253      1.0  0.41468  0.47330  0.33597  1.0000
  Fe  Fe22      1.0  0.15510  0.45480  0.36703  1.0000
  C   C143      1.0  0.16456  0.49391  0.51911  1.0000
  H   H254      1.0  0.13964  0.31563  0.32164  1.0000
  C   C144      1.0  0.27127  0.48276  0.46572  1.0000
  H   H255      1.0  0.44925  0.28842  0.61639  1.0000
  C   C145      1.0  0.29187  0.43215  0.35556  1.0000
  N   N8        1.0  0.05527  0.43527  0.49131  1.0000
  C   C146      1.0  0.45115  0.33894  0.42311  1.0000
  C   C147      1.0  0.44158  0.38925  0.41720  1.0000
  C   C148      1.0  0.46996  0.41757  0.39948  1.0000
  C   C149      1.0  0.48998  0.35680  0.41560  1.0000
  H   H256      1.0  0.51476  0.36001  0.60819  1.0000
  C   C150      1.0  0.48621  0.45313  0.41262  1.0000
  H   H257      1.0  0.45136  0.34223  0.44486  1.0000
  N   N9        1.0  0.42927  0.35195  0.40986  1.0000
  H   H258      1.0  0.41964  0.39472  0.41713  1.0000
  H   H259      1.0  0.45113  0.39410  0.43791  1.0000
  H   H260      1.0  0.45848  0.41939  0.38050  1.0000
  H   H261      1.0  0.49111  0.41221  0.39486  1.0000
  H   H262      1.0  0.39827  0.35476  0.45811  1.0000
  H   H263      1.0  0.39906  0.31461  0.45970  1.0000
  H   H264      1.0  0.49400  0.35854  0.39404  1.0000
  S   S41       1.0  0.35850  0.40539  0.31930  1.0000
  H   H265      1.0  0.51639  0.42611  0.47357  1.0000
  H   H266      1.0  0.41153  0.33224  0.32777  1.0000
  H   H267      1.0  0.05612  0.38684  0.57361  1.0000
  H   H268      1.0  0.42322  0.31811  0.63813  1.0000
  C   C151      1.0  0.51520  0.50851  0.51862  1.0000
  C   C152      1.0  0.17187  0.44781  0.50078  1.0000
  H   H269      1.0  0.43960  0.31056  0.41955  1.0000
  H   H270      1.0  0.17770  0.41502  0.52907  1.0000
  C   C153      1.0  0.46093  0.41173  0.58300  1.0000
  C   C154      1.0  0.07303  0.35794  0.48169  1.0000
  H   H271      1.0  0.47578  0.08046  0.52516  1.0000
  C   C155      1.0  0.30630  0.46473  0.55220  1.0000
  H   H272      1.0  0.25061  0.50141  0.55152  1.0000
  H   H273      1.0  0.17502  0.43465  0.48398  1.0000
  C   C156      1.0  0.50702  0.33679  0.42658  1.0000
  H   H274      1.0  0.04469  0.41708  0.53159  1.0000
  H   H275      1.0  0.27801  0.31848  0.63009  1.0000
  C   C157      1.0  0.06530  0.47037  0.44814  1.0000
  H   H276      1.0  0.27639  0.48102  0.44450  1.0000
  C   C158      1.0  0.07397  0.46939  0.56434  1.0000
  C   C159      1.0  0.51491  0.38201  0.49240  1.0000
  H   H277      1.0  0.51080  0.34230  0.56160  1.0000
  H   H278      1.0  0.09320  0.46128  0.56945  1.0000
  H   H279      1.0  0.45610  0.39569  0.56493  1.0000
  C   C160      1.0  0.25695  0.31580  0.61679  1.0000
  C   C161      1.0  0.50095  0.40285  0.48493  1.0000
  H   H280      1.0  0.50334  0.33345  0.44826  1.0000
  H   H281      1.0  0.47757  0.29896  0.56958  1.0000
  C   C162      1.0  0.49673  0.47097  0.60181  1.0000
  H   H282      1.0  0.50551  0.47301  0.39917  1.0000
  C   C163      1.0  0.27713  0.44085  0.33074  1.0000
  H   H283      1.0  0.50742  0.07051  0.53864  1.0000
  S   S42       1.0  0.04108  0.44482  0.63377  1.0000
  H   H284      1.0  0.09767  0.49467  0.52799  1.0000
  H   H285      1.0  0.42034  0.42423  0.57240  1.0000
  H   H286      1.0  0.49318  0.40697  0.34047  1.0000
  H   H287      1.0  0.32074  0.49895  0.63242  1.0000
  C   C164      1.0  0.39644  0.37495  0.59182  1.0000
  H   H288      1.0  0.21702  0.39790  0.34371  1.0000
  N   N10       1.0  0.49278  0.44678  0.57952  1.0000
  H   H289      1.0  0.15911  0.34289  0.35003  1.0000
  H   H290      1.0  0.28797  0.36674  0.60145  1.0000
  H   H291      1.0  0.49107  0.29604  0.62464  1.0000
  H   H292      1.0  0.25783  0.30262  0.59842  1.0000
  C   C165      1.0  0.40991  0.35503  0.33488  1.0000
  H   H293      1.0  0.24172  0.50177  0.50513  1.0000
  C   C166      1.0  0.51710  0.33025  0.32303  1.0000
  H   H294      1.0  0.03773  0.46313  0.44551  1.0000
  C   C167      1.0  0.51550  0.43143  0.33362  1.0000
  H   H295      1.0  0.23177  0.29960  0.62684  1.0000
  H   H296      1.0  0.06853  0.48925  0.48722  1.0000
  C   C168      1.0  0.50333  0.08704  0.52429  1.0000
  H   H297      1.0  0.03331  0.34510  0.58940  1.0000
  H   H298      1.0  0.08081  0.50581  0.41507  1.0000
  H   H299      1.0  0.02592  0.35910  0.48753  1.0000
  H   H300      1.0  0.08058  0.43870  0.33501  1.0000
  H   H301      1.0  0.46113  0.29668  0.32014  1.0000
  H   H302      1.0  0.28479  0.51306  0.51292  1.0000
  C   C169      1.0  0.06161  0.42798  0.31855  1.0000
  H   H303      1.0  0.17483  0.31464  0.33861  1.0000
  H   H304      1.0  0.03017  0.38136  0.60224  1.0000
  H   H305      1.0  0.44935  0.24724  0.64670  1.0000
  H   H306      1.0  0.02203  0.43074  0.34076  1.0000
  H   H307      1.0  0.52122  0.49600  0.59961  1.0000
  C   C170      1.0  0.52154  0.49630  0.54513  1.0000
  H   H308      1.0  0.52130  0.14064  0.51630  1.0000
  H   H309      1.0  0.49347  0.51404  0.52016  1.0000
  H   H310      1.0  0.35479  0.51391  0.59552  1.0000
  C   C171      1.0  0.19015  0.36033  0.31416  1.0000
  H   H311      1.0  0.20751  0.39015  0.66466  1.0000
  H   H312      1.0  0.49499  0.15820  0.89342  1.0000
  C   C172      1.0  0.50594  0.34932  0.66104  1.0000
  Fe  Fe23      1.0  0.46145  0.44690  0.73749  1.0000
  S   S43       1.0  0.40488  0.41088  0.74389  1.0000
  C   C173      1.0  0.16137  0.47138  0.74968  1.0000
  Fe  Fe24      1.0  0.39704  0.44721  0.71768  1.0000
  S   S44       1.0  0.36004  0.42833  0.68285  1.0000
  Fe  Fe25      1.0  0.41056  0.44660  0.77765  1.0000
  S   S45       1.0  0.38688  0.42138  0.81709  1.0000
  S   S46       1.0  0.17137  0.49008  0.96602  1.0000
  H   H313      1.0  0.45310  0.24515  0.70708  1.0000
  H   H314      1.0  0.27980  0.44711  0.94014  1.0000
  H   H315      1.0  0.30057  0.43722  0.65891  1.0000
  H   H316      1.0  0.46861  0.32513  0.88501  1.0000
  C   C174      1.0  0.51795  0.42891  0.79826  1.0000
  C   C175      1.0  0.47894  0.32419  0.74648  1.0000
  S   S47       1.0  0.47101  0.28339  0.75690  1.0000
  C   C176      1.0  0.40541  0.35010  0.80545  1.0000
  H   H317      1.0  0.31308  0.49216  0.93812  1.0000
  H   H318      1.0  0.47497  0.05272  0.69588  1.0000
  C   C177      1.0  0.45505  0.32680  0.92577  1.0000
  H   H319      1.0  0.50749  0.06526  0.79581  1.0000
  C   C178      1.0  0.42114  0.48788  0.87972  1.0000
  S   S48       1.0  0.13693  0.39736  0.86748  1.0000
  Fe  Fe26      1.0  0.10366  0.39833  0.90024  1.0000
  H   H320      1.0  0.46434  0.37393  0.68047  1.0000
  Fe  Fe27      1.0  0.17542  0.40645  0.89946  1.0000
  S   S49       1.0  0.20581  0.37848  0.89883  1.0000
  H   H321      1.0  0.50198  0.47396  0.67073  1.0000
  H   H322      1.0  0.47198  0.36134  0.79803  1.0000
  C   C179      1.0  0.51797  0.32092  0.92122  1.0000
  C   C180      1.0  0.22291  0.37653  0.92965  1.0000
  H   H323      1.0  0.39999  0.30792  0.91953  1.0000
  H   H324      1.0  0.49822  0.04708  0.95561  1.0000
  C   C181      1.0  0.47225  0.01607  0.92180  1.0000
  C   C182      1.0  0.15433  0.43146  0.79448  1.0000
  C   C183      1.0  0.42463  0.33296  0.92068  1.0000
  C   C184      1.0  0.26383  0.36712  0.95514  1.0000
  C   C185      1.0  0.51177  0.34919  0.73791  1.0000
  H   H325      1.0  0.21898  0.47318  0.70772  1.0000
  C   C186      1.0  0.31890  0.45822  0.91002  1.0000
  C   C187      1.0  0.49184  0.39061  0.73287  1.0000
  S   S50       1.0  0.04724  0.35928  0.90497  1.0000
  H   H326      1.0  0.46009  0.35591  0.83155  1.0000
  S   S51       1.0  0.45323  0.48046  0.70922  1.0000
  H   H327      1.0  0.44952  0.31175  0.94426  1.0000
  C   C188      1.0  0.34105  0.49432  0.85440  1.0000
  H   H328      1.0  0.09922  0.49581  0.83366  1.0000
  C   C189      1.0  0.06187  0.41112  0.75140  1.0000
  C   C190      1.0  0.32222  0.48988  0.67406  1.0000
  H   H329      1.0  0.31216  0.50540  0.68380  1.0000
  H   H330      1.0  0.46776  0.01903  0.90063  1.0000
  C   C191      1.0  0.06218  0.46437  0.80313  1.0000
  N   N11       1.0  0.50405  0.40609  0.82222  1.0000
  C   C192      1.0  0.39984  0.43938  0.84911  1.0000
  C   C193      1.0  0.05132  0.40945  0.72252  1.0000
  C   C194      1.0  0.45418  0.29163  0.66953  1.0000
  C   C195      1.0  0.41000  0.46521  0.90145  1.0000
  C   C196      1.0  0.39486  0.42962  0.89683  1.0000
  C   C197      1.0  0.38987  0.41684  0.87082  1.0000
  S   S52       1.0  0.39643  0.47921  0.75194  1.0000
  H   H331      1.0  0.50069  0.43931  0.79262  1.0000
  H   H332      1.0  0.38628  0.41183  0.91325  1.0000
  H   H333      1.0  0.37717  0.38919  0.86751  1.0000
  C   C198      1.0  0.48654  0.24200  0.92936  1.0000
  H   H334      1.0  0.02381  0.35084  0.84259  1.0000
  H   H335      1.0  0.28578  0.44754  0.82069  1.0000
  H   H336      1.0  0.06133  0.32728  0.85533  1.0000
  C   C199      1.0  0.45220  0.33211  0.74737  1.0000
  C   C200      1.0  0.45867  0.36539  0.74068  1.0000
  H   H337      1.0  0.34055  0.48766  0.68780  1.0000
  C   C201      1.0  0.41374  0.36259  0.66842  1.0000
  H   H338      1.0  0.42655  0.31257  0.75346  1.0000
  H   H339      1.0  0.43799  0.37135  0.74154  1.0000
  H   H340      1.0  0.39724  0.33666  0.82474  1.0000
  C   C202      1.0  0.03137  0.40854  0.88822  1.0000
  H   H341      1.0  0.14339  0.39034  0.76681  1.0000
  H   H342      1.0  0.29386  0.50744  0.83067  1.0000
  Fe  Fe28      1.0  0.39510  0.44783  0.97044  1.0000
  H   H343      1.0  0.25504  0.35727  0.91361  1.0000
  H   H344      1.0  0.42247  0.34825  0.93717  1.0000
  H   H345      1.0  0.03966  0.46233  0.81407  1.0000
  N   N12       1.0  0.30887  0.46014  0.85966  1.0000
  H   H346      1.0  0.08060  0.41583  0.95146  1.0000
  C   C203      1.0  0.31746  0.43156  0.85637  1.0000
  C   C204      1.0  0.29686  0.46103  0.88738  1.0000
  H   H347      1.0  0.36512  0.48234  0.82101  1.0000
  S   S53       1.0  0.19073  0.48010  0.65322  1.0000
  C   C205      1.0  0.05975  0.33335  0.83430  1.0000
  H   H348      1.0  0.06849  0.38406  0.84369  1.0000
  C   C206      1.0  0.28687  0.39443  0.86057  1.0000
  C   C207      1.0  0.29935  0.36823  0.86357  1.0000
  H   H349      1.0  0.48847  0.44213  0.83713  1.0000
  S   S54       1.0  0.51465  0.16117  0.74420  1.0000
  C   C208      1.0  0.04722  0.37061  0.80337  1.0000
  H   H350      1.0  0.25566  0.43026  0.84679  1.0000
  H   H351      1.0  0.04135  0.42753  0.71868  1.0000
  H   H352      1.0  0.32702  0.43160  0.83614  1.0000
  H   H353      1.0  0.33915  0.43592  0.86959  1.0000
  H   H354      1.0  0.26970  0.44011  0.89045  1.0000
  C   C209      1.0  0.04915  0.36115  0.83254  1.0000
  H   H355      1.0  0.42422  0.49278  0.83717  1.0000
  H   H356      1.0  0.26389  0.48907  0.85763  1.0000
  H   H357      1.0  0.07368  0.39437  0.75349  1.0000
  H   H358      1.0  0.43029  0.33104  0.68871  1.0000
  C   C210      1.0  0.47986  0.25048  0.83925  1.0000
  C   C211      1.0  0.44295  0.23359  0.68743  1.0000
  C   C212      1.0  0.46052  0.26055  0.66572  1.0000
  H   H359      1.0  0.31560  0.43177  0.91064  1.0000
  H   H360      1.0  0.27200  0.39299  0.87832  1.0000
  H   H361      1.0  0.26898  0.38643  0.84341  1.0000
  H   H362      1.0  0.27666  0.34175  0.86515  1.0000
  H   H363      1.0  0.31500  0.36913  0.84621  1.0000
  H   H364      1.0  0.31510  0.37367  0.88180  1.0000
  S   S55       1.0  0.52068  0.24524  0.71796  1.0000
  H   H365      1.0  0.49683  0.04258  0.67016  1.0000
  C   C213      1.0  0.46944  0.37527  0.81531  1.0000
  H   H366      1.0  0.46264  0.27009  0.94465  1.0000
  C   C214      1.0  0.48074  0.40650  0.86907  1.0000
  H   H367      1.0  0.45340  0.38771  0.86418  1.0000
  H   H368      1.0  0.29595  0.48531  0.89065  1.0000
  C   C215      1.0  0.09411  0.49753  0.81241  1.0000
  H   H369      1.0  0.51193  0.32566  0.94156  1.0000
  C   C216      1.0  0.41638  0.47509  0.85368  1.0000
  C   C217      1.0  0.27151  0.48335  0.83826  1.0000
  C   C218      1.0  0.46736  0.26266  0.92477  1.0000
  H   H370      1.0  0.38541  0.35650  0.79885  1.0000
  H   H371      1.0  0.28069  0.44098  0.68867  1.0000
  Fe  Fe29      1.0  0.16038  0.45505  0.86756  1.0000
  H   H372      1.0  0.49289  0.39221  0.87771  1.0000
  H   H373      1.0  0.45424  0.23153  0.87627  1.0000
  S   S56       1.0  0.16876  0.48529  0.82937  1.0000
  H   H374      1.0  0.44116  0.24428  0.91689  1.0000
  C   C219      1.0  0.16647  0.48594  0.77512  1.0000
  H   H375      1.0  0.44041  0.19221  0.93702  1.0000
  H   H376      1.0  0.07214  0.46572  0.94636  1.0000
  H   H377      1.0  0.48239  0.13904  0.92569  1.0000
  H   H378      1.0  0.46809  0.44555  0.88258  1.0000
  S   S57       1.0  0.14722  0.41762  0.71485  1.0000
  C   C220      1.0  0.21267  0.38618  0.95273  1.0000
  H   H379      1.0  0.16408  0.48695  0.73252  1.0000
  C   C221      1.0  0.44048  0.35105  0.67304  1.0000
  H   H380      1.0  0.07005  0.43161  0.82997  1.0000
  H   H381      1.0  0.48841  0.26885  0.66585  1.0000
  Fe  Fe30      1.0  0.51599  0.27400  0.75252  1.0000
  H   H382      1.0  0.44592  0.39723  0.78898  1.0000
  H   H383      1.0  0.19349  0.39417  0.95195  1.0000
  S   S58       1.0  0.41449  0.48222  0.93386  1.0000
  C   C222      1.0  0.24784  0.36606  0.93107  1.0000
  Fe  Fe31      1.0  0.14447  0.44550  0.67810  1.0000
  H   H384      1.0  0.51640  0.35300  0.80043  1.0000
  S   S59       1.0  0.50149  0.43282  0.72552  1.0000
  H   H385      1.0  0.42546  0.27994  0.66865  1.0000
  H   H386      1.0  0.28348  0.35958  0.95600  1.0000
  H   H387      1.0  0.51768  0.41358  0.78094  1.0000
  H   H388      1.0  0.05741  0.42271  0.88078  1.0000
  H   H389      1.0  0.04113  0.30107  0.97196  1.0000
  H   H390      1.0  0.44816  0.21184  0.68442  1.0000
  N   N13       1.0  0.03708  0.39798  0.79891  1.0000
  S   S60       1.0  0.13963  0.40128  0.93223  1.0000
  H   H391      1.0  0.40683  0.33246  0.79068  1.0000
  H   H392      1.0  0.08555  0.34259  0.82515  1.0000
  S   S61       1.0  0.46807  0.48006  0.77277  1.0000
  C   C223      1.0  0.15312  0.43685  0.74650  1.0000
  H   H393      1.0  0.40897  0.37244  0.68720  1.0000
  S   S62       1.0  0.12451  0.45557  0.89869  1.0000
  C   C224      1.0  0.46065  0.30761  0.90237  1.0000
  H   H394      1.0  0.51687  0.27914  0.88426  1.0000
  H   H395      1.0  0.50297  0.35549  0.68174  1.0000
  C   C225      1.0  0.24140  0.47315  0.81920  1.0000
  Fe  Fe32      1.0  0.45373  0.50998  0.74480  1.0000
  C   C226      1.0  0.30782  0.46505  0.93684  1.0000
  Fe  Fe33      1.0  0.16310  0.45856  0.92873  1.0000
  S   S63       1.0  0.20186  0.46451  0.89755  1.0000
  H   H396      1.0  0.47849  0.35242  0.92892  1.0000
  H   H397      1.0  0.23893  0.50195  0.75050  1.0000
  S   S64       1.0  0.12423  0.48255  0.68069  1.0000
  H   H398      1.0  0.15149  0.41579  0.81155  1.0000
  C   C227      1.0  0.14972  0.41705  0.76904  1.0000
  C   C228      1.0  0.16283  0.46606  0.79768  1.0000
  H   H399      1.0  0.05867  0.46744  0.78185  1.0000
  H   H400      1.0  0.49966  0.24265  0.84294  1.0000
  H   H401      1.0  0.46360  0.40811  0.97899  1.0000
  C   C229      1.0  0.29181  0.45343  0.66943  1.0000
  C   C230      1.0  0.09353  0.31523  0.96291  1.0000
  H   H402      1.0  0.24770  0.46745  0.79928  1.0000
  H   H403      1.0  0.44589  0.26298  0.86055  1.0000
  N   N14       1.0  0.48553  0.29429  0.90741  1.0000
  H   H404      1.0  0.43471  0.28582  0.89677  1.0000
  H   H405      1.0  0.34681  0.47704  0.90752  1.0000
  C   C231      1.0  0.28015  0.45375  0.84073  1.0000
  C   C232      1.0  0.44029  0.38335  0.80808  1.0000
  C   C233      1.0  0.46627  0.25635  0.86530  1.0000
  H   H406      1.0  0.42203  0.49076  0.66460  1.0000
  H   H407      1.0  0.43732  0.39956  0.82324  1.0000
  H   H408      1.0  0.32254  0.46075  0.95268  1.0000
  H   H409      1.0  0.46614  0.05632  0.66167  1.0000
  H   H410      1.0  0.07203  0.36225  0.95699  1.0000
  H   H411      1.0  0.42835  0.34750  0.90209  1.0000
  C   C234      1.0  0.48030  0.43072  0.89028  1.0000
  H   H412      1.0  0.07419  0.41688  0.70972  1.0000
  C   C235      1.0  0.24671  0.49270  0.71038  1.0000
  H   H413      1.0  0.11718  0.50217  0.80083  1.0000
  H   H414      1.0  0.46504  0.41541  0.90754  1.0000
  C   C236      1.0  0.51018  0.10742  0.77311  1.0000
  H   H415      1.0  0.50523  0.10891  0.89834  1.0000
  H   H416      1.0  0.42326  0.38384  0.65374  1.0000
  C   C237      1.0  0.06637  0.43225  0.80833  1.0000
  H   H417      1.0  0.46131  0.30085  0.69026  1.0000
  C   C238      1.0  0.49498  0.05148  0.93453  1.0000
  H   H418      1.0  0.07326  0.37906  0.79482  1.0000
  H   H419      1.0  0.41449  0.22307  0.68710  1.0000
  H   H420      1.0  0.36254  0.49732  0.86737  1.0000
  H   H421      1.0  0.21773  0.45006  0.82666  1.0000
  H   H422      1.0  0.27123  0.45457  0.65777  1.0000
  C   C239      1.0  0.06730  0.31953  0.97962  1.0000
  H   H423      1.0  0.02940  0.34633  0.79264  1.0000
  C   C240      1.0  0.50083  0.42710  0.84431  1.0000
  H   H424      1.0  0.04035  0.30923  0.82430  1.0000
  C   C241      1.0  0.44836  0.33731  0.64727  1.0000
  H   H425      1.0  0.08198  0.43823  0.75567  1.0000
  H   H426      1.0  0.09133  0.43723  0.79959  1.0000
  H   H427      1.0  0.38880  0.34057  0.66151  1.0000
  H   H428      1.0  0.45824  0.22950  0.82791  1.0000
  C   C242      1.0  0.49592  0.28571  0.88143  1.0000
  S   S65       1.0  0.35876  0.39048  0.96831  1.0000
  H   H429      1.0  0.12038  0.33291  0.96987  1.0000
  C   C243      1.0  0.18740  0.38810  0.65060  1.0000
  H   H430      1.0  0.09134  0.32080  0.94184  1.0000
  C   C244      1.0  0.48666  0.05999  0.67592  1.0000
  C   C245      1.0  0.25367  0.37695  0.97812  1.0000
  H   H431      1.0  0.50763  0.30889  0.86849  1.0000
  H   H432      1.0  0.51485  0.37411  0.65027  1.0000
  H   H433      1.0  0.49143  0.27433  0.82701  1.0000
  C   C246      1.0  0.46533  0.21036  0.94673  1.0000
  H   H434      1.0  0.49187  0.23269  0.91061  1.0000
  H   H435      1.0  0.51131  0.25829  0.93964  1.0000
  H   H436      1.0  0.50701  0.44915  0.89705  1.0000
  C   C247      1.0  0.06212  0.41781  0.96504  1.0000
  H   H437      1.0  0.23584  0.49473  0.81750  1.0000
  C   C248      1.0  0.35528  0.50024  0.82580  1.0000
  H   H438      1.0  0.48080  0.06608  0.93322  1.0000
  H   H439      1.0  0.33535  0.49640  0.81099  1.0000
  H   H440      1.0  0.51944  0.11954  0.94885  1.0000
  C   C249      1.0  0.07411  0.35724  0.97815  1.0000
  C   C250      1.0  0.22740  0.38556  0.97703  1.0000
  H   H441      1.0  0.08842  0.28818  0.96438  1.0000
  C   C251      1.0  0.51832  0.38244  0.73137  1.0000
  H   H442      1.0  0.26090  0.47882  0.71548  1.0000
  H   H443      1.0  0.03851  0.38668  0.66249  1.0000
  H   H444      1.0  0.48015  0.19663  0.95011  1.0000
  C   C252      1.0  0.07201  0.45593  0.96653  1.0000
  H   H445      1.0  0.25653  0.50682  0.69148  1.0000
  C   C253      1.0  0.03012  0.39898  0.76989  1.0000
  H   H446      1.0  0.09829  0.47165  0.97514  1.0000
  C   C254      1.0  0.50479  0.15392  0.91240  1.0000
  C   C255      1.0  0.50665  0.39860  0.97729  1.0000
  H   H447      1.0  0.03116  0.38274  0.71708  1.0000
  H   H448      1.0  0.03595  0.40367  0.95613  1.0000
  N   N15       1.0  0.47157  0.32163  0.65033  1.0000
  H   H449      1.0  0.51559  0.37336  0.84671  1.0000
  H   H450      1.0  0.05306  0.45915  0.97870  1.0000
  C   C256      1.0  0.51505  0.09237  0.79581  1.0000
  H   H451      1.0  0.46013  0.21832  0.96620  1.0000
  C   C257      1.0  0.51972  0.14251  0.77304  1.0000
  H   H452      1.0  0.49888  0.09179  0.75570  1.0000
  C   C258      1.0  0.50051  0.48371  0.65087  1.0000
  H   H453      1.0  0.16154  0.37135  0.65955  1.0000
  H   H454      1.0  0.50394  0.11415  0.68022  1.0000
  H   H455      1.0  0.47744  0.48713  0.65019  1.0000
  C   C259      1.0  0.37606  0.44529  0.65114  1.0000
  H   H456      1.0  0.17296  0.51269  0.77730  1.0000
  C   C260      1.0  0.51568  0.09775  0.67554  1.0000
  H   H457      1.0  0.19043  0.41414  0.64746  1.0000
  C   C261      1.0  0.40707  0.47646  0.64768  1.0000
  C   C262      1.0  0.34105  0.50691  0.64792  1.0000
  C   C263      1.0  0.49458  0.83065  0.07830  1.0000
  C   C264      1.0  0.26679  0.51978  0.01193  1.0000
  S   S66       1.0  0.20875  0.56437  0.16303  1.0000
  C   C265      1.0  0.33455  0.61585  0.30403  1.0000
  H   H458      1.0  0.43777  0.80562  0.26516  1.0000
  C   C266      1.0  0.46561  0.82496  0.26249  1.0000
  C   C267      1.0  0.51577  0.76488  0.23028  1.0000
  H   H459      1.0  0.42778  0.81643  0.15556  1.0000
  H   H460      1.0  0.49176  0.83384  0.14632  1.0000
  H   H461      1.0  0.44903  0.76350  0.17329  1.0000
  H   H462      1.0  0.30864  0.54966  0.05713  1.0000
  C   C268      1.0  0.21921  0.57268  0.27796  1.0000
  Fe  Fe34      1.0  0.42341  0.70525  0.05379  1.0000
  S   S67       1.0  0.38796  0.72722  0.05094  1.0000
  S   S68       1.0  0.44904  0.70078  0.01651  1.0000
  Fe  Fe35      1.0  0.41352  0.69526  0.11441  1.0000
  S   S69       1.0  0.37628  0.71536  0.11506  1.0000
  S   S70       1.0  0.43210  0.68098  0.15175  1.0000
  Fe  Fe36      1.0  0.35438  0.68385  0.07816  1.0000
  S   S71       1.0  0.29912  0.64934  0.06615  1.0000
  Fe  Fe37      1.0  0.41401  0.75615  0.08775  1.0000
  S   S72       1.0  0.38857  0.66007  0.07944  1.0000
  S   S73       1.0  0.39160  0.70577  0.26725  1.0000
  C   C269      1.0  0.50099  0.92662  0.22249  1.0000
  H   H463      1.0  0.28800  0.61866  0.30232  1.0000
  C   C270      1.0  0.45422  0.63474  0.28935  1.0000
  C   C271      1.0  0.43778  0.61032  0.26930  1.0000
  C   C272      1.0  0.25617  0.57879  0.22473  1.0000
  H   H464      1.0  0.42164  0.61392  0.25511  1.0000
  C   C273      1.0  0.42014  0.68741  0.18377  1.0000
  C   C274      1.0  0.39585  0.69830  0.18756  1.0000
  C   C275      1.0  0.38762  0.70397  0.21321  1.0000
  C   C276      1.0  0.40336  0.69870  0.23539  1.0000
  C   C277      1.0  0.42723  0.68726  0.23167  1.0000
  C   C278      1.0  0.43552  0.68159  0.20599  1.0000
  H   H465      1.0  0.38356  0.70264  0.17076  1.0000
  H   H466      1.0  0.36928  0.71296  0.21592  1.0000
  H   H467      1.0  0.43927  0.68270  0.24859  1.0000
  H   H468      1.0  0.45423  0.67301  0.20339  1.0000
  C   C279      1.0  0.47334  0.84017  0.09206  1.0000
  H   H469      1.0  0.48893  0.75670  0.15021  1.0000
  H   H470      1.0  0.27698  0.56161  0.10594  1.0000
  C   C280      1.0  0.50211  0.79941  0.00220  1.0000
  H   H471      1.0  0.46450  0.55872  0.02204  1.0000
  C   C281      1.0  0.24846  0.57487  0.99124  1.0000
  H   H472      1.0  0.45386  0.56884  0.19090  1.0000
  N   N16       1.0  0.39962  0.57005  0.16133  1.0000
  C   C282      1.0  0.23308  0.51765  0.20761  1.0000
  H   H473      1.0  0.20350  0.55139  0.26403  1.0000
  H   H474      1.0  0.40006  0.52953  0.18459  1.0000
  H   H475      1.0  0.34092  0.56843  0.18814  1.0000
  C   C283      1.0  0.48769  0.87299  0.10355  1.0000
  C   C284      1.0  0.42518  0.79465  0.16793  1.0000
  H   H476      1.0  0.45639  0.59343  0.07843  1.0000
  H   H477      1.0  0.27253  0.58792  0.20669  1.0000
  H   H478      1.0  0.47539  0.81701  0.24523  1.0000
  H   H479      1.0  0.22446  0.60953  0.24888  1.0000
  H   H480      1.0  0.38416  0.77436  0.00591  1.0000
  H   H481      1.0  0.26090  0.51992  0.99066  1.0000
  H   H482      1.0  0.46663  0.95174  0.25205  1.0000
  H   H483      1.0  0.46074  0.56426  0.10073  1.0000
  H   H484      1.0  0.35679  0.60231  0.03792  1.0000
  C   C285      1.0  0.23315  0.58801  0.13594  1.0000
  C   C286      1.0  0.26693  0.61500  0.13998  1.0000
  C   C287      1.0  0.28733  0.63366  0.11852  1.0000
  C   C288      1.0  0.27357  0.62619  0.09304  1.0000
  C   C289      1.0  0.23949  0.59959  0.08899  1.0000
  C   C290      1.0  0.21943  0.58008  0.11043  1.0000
  H   H485      1.0  0.27754  0.62107  0.15965  1.0000
  H   H486      1.0  0.31358  0.65392  0.12178  1.0000
  H   H487      1.0  0.22861  0.59392  0.06935  1.0000
  H   H488      1.0  0.19317  0.55947  0.10730  1.0000
  C   C291      1.0  0.37522  0.58282  0.15332  1.0000
  C   C292      1.0  0.35780  0.59167  0.17621  1.0000
  C   C293      1.0  0.33535  0.60611  0.16558  1.0000
  H   H489      1.0  0.35455  0.56390  0.14001  1.0000
  H   H490      1.0  0.38926  0.60688  0.14144  1.0000
  H   H491      1.0  0.44021  0.62374  0.16431  1.0000
  H   H492      1.0  0.41374  0.59631  0.10741  1.0000
  H   H493      1.0  0.37747  0.61155  0.18943  1.0000
  C   C294      1.0  0.46986  0.86095  0.25824  1.0000
  H   H494      1.0  0.35077  0.62904  0.15285  1.0000
  H   H495      1.0  0.31319  0.58604  0.15406  1.0000
  H   H496      1.0  0.32518  0.61451  0.18226  1.0000
  H   H497      1.0  0.49864  0.64810  0.18706  1.0000
  C   C295      1.0  0.51379  0.91600  0.19770  1.0000
  H   H498      1.0  0.51149  0.61843  0.20024  1.0000
  H   H499      1.0  0.24349  0.51763  0.11112  1.0000
  C   C296      1.0  0.46282  0.57663  0.28613  1.0000
  H   H500      1.0  0.27751  0.54439  0.23244  1.0000
  H   H501      1.0  0.50895  0.88916  0.19961  1.0000
  H   H502      1.0  0.42020  0.55064  0.08373  1.0000
  H   H503      1.0  0.49092  0.91587  0.05431  1.0000
  C   C297      1.0  0.43063  0.58704  0.11605  1.0000
  H   H504      1.0  0.31135  0.70560  0.21078  1.0000
  H   H505      1.0  0.47131  0.88032  0.11431  1.0000
  Fe  Fe38      1.0  0.42526  0.71440  0.30358  1.0000
  C   C298      1.0  0.49261  0.91091  0.03305  1.0000
  C   C299      1.0  0.48923  0.62278  0.19707  1.0000
  H   H506      1.0  0.42641  0.54649  0.14251  1.0000
  H   H507      1.0  0.45087  0.65714  0.29044  1.0000
  C   C300      1.0  0.44182  0.58112  0.26785  1.0000
  H   H508      1.0  0.37882  0.62748  0.99228  1.0000
  C   C301      1.0  0.46168  0.59340  0.18032  1.0000
  H   H509      1.0  0.28073  0.68935  0.18392  1.0000
  H   H510      1.0  0.45377  0.60962  0.12459  1.0000
  S   S74       1.0  0.45270  0.73785  0.08880  1.0000
  C   C302      1.0  0.41059  0.55857  0.13699  1.0000
  H   H511      1.0  0.47978  0.82461  0.28048  1.0000
  C   C303      1.0  0.47957  0.60128  0.30607  1.0000
  C   C304      1.0  0.50146  0.77020  0.20433  1.0000
  H   H512      1.0  0.22887  0.54668  0.02740  1.0000
  H   H513      1.0  0.17713  0.58391  0.28383  1.0000
  C   C305      1.0  0.34897  0.58580  0.01995  1.0000
  C   C306      1.0  0.46701  0.93425  0.26755  1.0000
  H   H514      1.0  0.39911  0.77194  0.16443  1.0000
  H   H515      1.0  0.44776  0.90742  0.26202  1.0000
  C   C307      1.0  0.44267  0.57288  0.09341  1.0000
  H   H516      1.0  0.49871  0.94424  0.17044  1.0000
  H   H517      1.0  0.50689  0.93001  0.28981  1.0000
  H   H518      1.0  0.31733  0.60784  0.01087  1.0000
  H   H519      1.0  0.52118  0.96849  0.27123  1.0000
  C   C308      1.0  0.51269  0.78086  0.14452  1.0000
  H   H520      1.0  0.29790  0.58260  0.06074  1.0000
  H   H521      1.0  0.25527  0.63017  0.20033  1.0000
  C   C309      1.0  0.19419  0.57751  0.29574  1.0000
  C   C310      1.0  0.25665  0.53075  0.07008  1.0000
  C   C311      1.0  0.26672  0.53449  0.09922  1.0000
  H   H522      1.0  0.40307  0.61030  0.00844  1.0000
  H   H523      1.0  0.35817  0.62311  0.29213  1.0000
  H   H524      1.0  0.23485  0.53601  0.06832  1.0000
  C   C312      1.0  0.28795  0.55588  0.05288  1.0000
  H   H525      1.0  0.32345  0.65133  0.28368  1.0000
  S   S75       1.0  0.42895  0.81145  0.09547  1.0000
  H   H526      1.0  0.42440  0.53546  0.00416  1.0000
  H   H527      1.0  0.31387  0.67744  0.18603  1.0000
  H   H528      1.0  0.37744  0.54836  0.19936  1.0000
  H   H529      1.0  0.47850  0.62360  0.21667  1.0000
  H   H530      1.0  0.50527  0.91147  0.15537  1.0000
  H   H531      1.0  0.48348  0.80560  0.06901  1.0000
  H   H532      1.0  0.46631  0.55432  0.28488  1.0000
  C   C313      1.0  0.37765  0.60342  0.99949  1.0000
  C   C314      1.0  0.45289  0.78530  0.16070  1.0000
  H   H533      1.0  0.25435  0.65821  0.22533  1.0000
  H   H534      1.0  0.26178  0.59053  0.03179  1.0000
  H   H535      1.0  0.45889  0.86680  0.27588  1.0000
  C   C315      1.0  0.44776  0.56129  0.00696  1.0000
  H   H536      1.0  0.25299  0.62865  0.27573  1.0000
  H   H537      1.0  0.42726  0.80191  0.18908  1.0000
  H   H538      1.0  0.44767  0.98903  0.13370  1.0000
  N   N17       1.0  0.28128  0.55551  0.02363  1.0000
  H   H539      1.0  0.31183  0.57504  0.98810  1.0000
  S   S76       1.0  0.48212  0.73377  0.30017  1.0000
  H   H540      1.0  0.24798  0.52764  0.18903  1.0000
  H   H541      1.0  0.47959  0.88249  0.03007  1.0000
  S   S77       1.0  0.41967  0.55030  0.24334  1.0000
  H   H542      1.0  0.38185  0.69341  0.00170  1.0000
  H   H543      1.0  0.47836  0.79282  0.99074  1.0000
  H   H544      1.0  0.38763  0.53792  0.12655  1.0000
  H   H545      1.0  0.23047  0.57484  0.21828  1.0000
  C   C316      1.0  0.38240  0.53983  0.18000  1.0000
  H   H546      1.0  0.42247  0.60400  0.19491  1.0000
  C   C317      1.0  0.43037  0.59903  0.17529  1.0000
  H   H547      1.0  0.49073  0.83174  0.18130  1.0000
  H   H548      1.0  0.42951  0.94170  0.28976  1.0000
  C   C318      1.0  0.25455  0.56679  0.01995  1.0000
  C   C319      1.0  0.50434  0.93982  0.27021  1.0000
  H   H549      1.0  0.49418  0.74711  0.19189  1.0000
  C   C320      1.0  0.25173  0.54248  0.23037  1.0000
  H   H550      1.0  0.47405  0.59279  0.16151  1.0000
  N   N18       1.0  0.27107  0.60578  0.24650  1.0000
  C   C321      1.0  0.29550  0.60015  0.26388  1.0000
  H   H551      1.0  0.47876  0.92171  0.02169  1.0000
  C   C322      1.0  0.29193  0.64084  0.23362  1.0000
  C   C323      1.0  0.24240  0.60598  0.26217  1.0000
  H   H552      1.0  0.23666  0.53087  0.24857  1.0000
  H   H553      1.0  0.45461  0.85955  0.24052  1.0000
  C   C324      1.0  0.27159  0.65133  0.21419  1.0000
  H   H554      1.0  0.44826  0.77591  0.13998  1.0000
  N   N19       1.0  0.51657  0.92492  0.24856  1.0000
  H   H555      1.0  0.47802  0.77179  0.20935  1.0000
  C   C325      1.0  0.30947  0.62349  0.28873  1.0000
  C   C326      1.0  0.29604  0.68289  0.19780  1.0000
  H   H556      1.0  0.31809  0.60341  0.25208  1.0000
  H   H557      1.0  0.28299  0.57334  0.27159  1.0000
  H   H558      1.0  0.47241  0.91030  0.22260  1.0000
  H   H559      1.0  0.39396  0.55858  0.31230  1.0000
  H   H560      1.0  0.31441  0.64208  0.22287  1.0000
  H   H561      1.0  0.30343  0.66190  0.24853  1.0000
  H   H562      1.0  0.28653  0.52673  0.10278  1.0000
  C   C327      1.0  0.31402  0.58127  0.00955  1.0000
  H   H563      1.0  0.43983  0.57978  0.01447  1.0000
  H   H564      1.0  0.47364  0.96883  0.30038  1.0000
  C   C328      1.0  0.50848  0.88855  0.25523  1.0000
  H   H565      1.0  0.17760  0.55314  0.30666  1.0000
  C   C329      1.0  0.47510  0.63024  0.30775  1.0000
  C   C330      1.0  0.22070  0.58560  0.99044  1.0000
  C   C331      1.0  0.45462  0.94258  0.29312  1.0000
  H   H566      1.0  0.20865  0.59839  0.31038  1.0000
  H   H567      1.0  0.34771  0.56114  0.02532  1.0000
  H   H568      1.0  0.22864  0.60913  0.00263  1.0000
  H   H569      1.0  0.23447  0.56488  0.29066  1.0000
  H   H570      1.0  0.46668  0.89887  0.17436  1.0000
  H   H571      1.0  0.50721  0.78715  0.12443  1.0000
  H   H572      1.0  0.32214  0.58802  0.30939  1.0000
  H   H573      1.0  0.19564  0.56431  0.99779  1.0000
  C   C332      1.0  0.49484  0.91773  0.17306  1.0000
  H   H574      1.0  0.50693  0.71745  0.13064  1.0000
  H   H575      1.0  0.49074  0.59994  0.98468  1.0000
  H   H576      1.0  0.49596  0.74074  0.23988  1.0000
  C   C333      1.0  0.48985  0.81707  0.16327  1.0000
  H   H577      1.0  0.32826  0.51596  0.16565  1.0000
  H   H578      1.0  0.51069  0.91513  0.98450  1.0000
  H   H579      1.0  0.50628  0.95359  0.21912  1.0000
  H   H580      1.0  0.49712  0.85575  0.99106  1.0000
  H   H581      1.0  0.49649  0.79924  0.02353  1.0000
  H   H582      1.0  0.31235  0.51685  0.99963  1.0000
  H   H583      1.0  0.45062  0.92309  0.30842  1.0000
  H   H584      1.0  0.50906  0.77897  0.99853  1.0000
  C   C334      1.0  0.42896  0.69834  0.98578  1.0000
  H   H585      1.0  0.27235  0.59650  0.98268  1.0000
  H   H586      1.0  0.52030  0.87895  0.24055  1.0000
  N   N20       1.0  0.52004  0.81030  0.16307  1.0000
  H   H587      1.0  0.52085  0.86487  0.02095  1.0000
  H   H588      1.0  0.52061  0.88826  0.27434  1.0000
  H   H589      1.0  0.42810  0.01020  0.15125  1.0000
  H   H590      1.0  0.37280  0.58583  0.98251  1.0000
  C   C335      1.0  0.46766  0.57422  0.98105  1.0000
  C   C336      1.0  0.39591  0.69477  0.98399  1.0000
  H   H591      1.0  0.36047  0.78476  0.98225  1.0000
  C   C337      1.0  0.37534  0.77099  0.98507  1.0000
  H   H592      1.0  0.20685  0.51439  0.20488  1.0000
  H   H593      1.0  0.35810  0.74289  0.98133  1.0000
  S   S78       1.0  0.39520  0.70195  0.40210  1.0000
  H   H594      1.0  0.46397  0.71958  0.42185  1.0000
  H   H595      1.0  0.27832  0.55854  0.59386  1.0000
  Fe  Fe39      1.0  0.48781  0.77035  0.33280  1.0000
  C   C338      1.0  0.26070  0.62616  0.64031  1.0000
  H   H596      1.0  0.08258  0.52564  0.44649  1.0000
  C   C339      1.0  0.26056  0.53202  0.58634  1.0000
  C   C340      1.0  0.49670  0.91000  0.50905  1.0000
  H   H597      1.0  0.48795  0.86407  0.46687  1.0000
  S   S79       1.0  0.50270  0.94835  0.34902  1.0000
  H   H598      1.0  0.19663  0.55726  0.60805  1.0000
  Fe  Fe40      1.0  0.47378  0.69671  0.33295  1.0000
  H   H599      1.0  0.47543  0.81263  0.44718  1.0000
  C   C341      1.0  0.44650  0.71271  0.43838  1.0000
  C   C342      1.0  0.41191  0.70360  0.43417  1.0000
  C   C343      1.0  0.38983  0.69550  0.45604  1.0000
  H   H600      1.0  0.47339  0.85990  0.52668  1.0000
  H   H601      1.0  0.36308  0.68867  0.45304  1.0000
  H   H602      1.0  0.23646  0.54604  0.54081  1.0000
  H   H603      1.0  0.43772  0.77296  0.45496  1.0000
  H   H604      1.0  0.35123  0.59604  0.61750  1.0000
  H   H605      1.0  0.47042  0.82616  0.34696  1.0000
  H   H606      1.0  0.46926  0.80853  0.52081  1.0000
  C   C344      1.0  0.23031  0.59447  0.63663  1.0000
  Fe  Fe41      1.0  0.42520  0.70706  0.55468  1.0000
  S   S80       1.0  0.38845  0.72721  0.55045  1.0000
  S   S81       1.0  0.45275  0.70426  0.51782  1.0000
  Fe  Fe42      1.0  0.41444  0.69894  0.61534  1.0000
  Fe  Fe43      1.0  0.35520  0.68483  0.57848  1.0000
  S   S82       1.0  0.30001  0.64927  0.56648  1.0000
  S   S83       1.0  0.37636  0.71806  0.61469  1.0000
  S   S84       1.0  0.39053  0.66236  0.58088  1.0000
  H   H607      1.0  0.39968  0.79230  0.43747  1.0000
  C   C345      1.0  0.43644  0.70424  0.48589  1.0000
  H   H608      1.0  0.49811  0.68444  0.42330  1.0000
  C   C346      1.0  0.40207  0.69612  0.48180  1.0000
  S   S85       1.0  0.43125  0.75378  0.33428  1.0000
  H   H609      1.0  0.38475  0.68971  0.49842  1.0000
  C   C347      1.0  0.43343  0.61113  0.39076  1.0000
  H   H610      1.0  0.16182  0.51656  0.51639  1.0000
  H   H611      1.0  0.30353  0.53820  0.46669  1.0000
  H   H612      1.0  0.46008  0.88768  0.59342  1.0000
  N   N21       1.0  0.44952  0.81431  0.48291  1.0000
  H   H613      1.0  0.39153  0.52371  0.45513  1.0000
  H   H614      1.0  0.51291  0.87186  0.50989  1.0000
  H   H615      1.0  0.45018  0.77091  0.50164  1.0000
  C   C348      1.0  0.48812  0.66118  0.41047  1.0000
  H   H616      1.0  0.34076  0.63907  0.63918  1.0000
  C   C349      1.0  0.27243  0.62967  0.59339  1.0000
  C   C350      1.0  0.24099  0.59910  0.58955  1.0000
  C   C351      1.0  0.22033  0.58120  0.61117  1.0000
  H   H617      1.0  0.23281  0.58879  0.56996  1.0000
  C   C352      1.0  0.49089  0.85240  0.34378  1.0000
  H   H618      1.0  0.32540  0.57621  0.37735  1.0000
  C   C353      1.0  0.36322  0.54188  0.59734  1.0000
  H   H619      1.0  0.49634  0.64336  0.41893  1.0000
  C   C354      1.0  0.46833  0.85352  0.48292  1.0000
  S   S86       1.0  0.45338  0.74136  0.58936  1.0000
  H   H620      1.0  0.51049  0.97295  0.40509  1.0000
  H   H621      1.0  0.39204  0.58754  0.57270  1.0000
  C   C355      1.0  0.45852  0.71250  0.46404  1.0000
  C   C356      1.0  0.51124  0.91424  0.34406  1.0000
  H   H622      1.0  0.39848  0.77089  0.49031  1.0000
  H   H623      1.0  0.44213  0.51420  0.61979  1.0000
  H   H624      1.0  0.39839  0.80865  0.47862  1.0000
  H   H625      1.0  0.41966  0.80156  0.53477  1.0000
  H   H626      1.0  0.50872  0.77599  0.52153  1.0000
  Fe  Fe44      1.0  0.41375  0.75835  0.58675  1.0000
  C   C357      1.0  0.48815  0.87220  0.50856  1.0000
  C   C358      1.0  0.38516  0.55987  0.57311  1.0000
  H   H627      1.0  0.23335  0.52641  0.58814  1.0000
  H   H628      1.0  0.43232  0.77788  0.40384  1.0000
  H   H629      1.0  0.43023  0.56862  0.35268  1.0000
  H   H630      1.0  0.44187  0.66252  0.40074  1.0000
  H   H631      1.0  0.43859  0.63733  0.42930  1.0000
  C   C359      1.0  0.27655  0.51877  0.47193  1.0000
  C   C360      1.0  0.52073  0.98263  0.42516  1.0000
  H   H632      1.0  0.51393  0.92352  0.52608  1.0000
  H   H633      1.0  0.40403  0.54778  0.62335  1.0000
  Fe  Fe45      1.0  0.42808  0.71539  0.36486  1.0000
  S   S87       1.0  0.42609  0.81378  0.59102  1.0000
  C   C361      1.0  0.48480  0.88010  0.34813  1.0000
  H   H634      1.0  0.41682  0.58566  0.44546  1.0000
  S   S88       1.0  0.49497  0.66040  0.33313  1.0000
  H   H635      1.0  0.32657  0.56379  0.41105  1.0000
  C   C362      1.0  0.38913  0.56857  0.44055  1.0000
  C   C363      1.0  0.44870  0.80160  0.45508  1.0000
  H   H636      1.0  0.41896  0.80774  0.39229  1.0000
  H   H637      1.0  0.45948  0.87503  0.35449  1.0000
  H   H638      1.0  0.32844  0.63066  0.39272  1.0000
  H   H639      1.0  0.38754  0.59127  0.34957  1.0000
  C   C364      1.0  0.47910  0.88044  0.58778  1.0000
  C   C365      1.0  0.44866  0.64349  0.40894  1.0000
  C   C366      1.0  0.49388  0.83631  0.57743  1.0000
  H   H640      1.0  0.48649  0.80956  0.57457  1.0000
  H   H641      1.0  0.25841  0.52241  0.45903  1.0000
  H   H642      1.0  0.44735  0.59657  0.39484  1.0000
  C   C367      1.0  0.43626  0.80440  0.40634  1.0000
  H   H643      1.0  0.29194  0.59282  0.40651  1.0000
  H   H644      1.0  0.35506  0.80202  0.51353  1.0000
  C   C368      1.0  0.38512  0.55828  0.41107  1.0000
  H   H645      1.0  0.43350  0.83708  0.43634  1.0000
  C   C369      1.0  0.28197  0.64352  0.61874  1.0000
  C   C370      1.0  0.40697  0.80966  0.51984  1.0000
  H   H646      1.0  0.51842  0.83328  0.48252  1.0000
  H   H647      1.0  0.46339  0.82350  0.40129  1.0000
  N   N22       1.0  0.27540  0.55655  0.51085  1.0000
  H   H648      1.0  0.40134  0.54590  0.40803  1.0000
  C   C371      1.0  0.26454  0.55427  0.53946  1.0000
  C   C372      1.0  0.25274  0.56590  0.49456  1.0000
  C   C373      1.0  0.31239  0.58484  0.50700  1.0000
  C   C374      1.0  0.34069  0.57937  0.52006  1.0000
  H   H649      1.0  0.49970  0.66960  0.39060  1.0000
  C   C375      1.0  0.25233  0.59937  0.50278  1.0000
  H   H650      1.0  0.34232  0.63129  0.32250  1.0000
  H   H651      1.0  0.35586  0.76380  0.52465  1.0000
  C   C376      1.0  0.37682  0.60859  0.51269  1.0000
  C   C377      1.0  0.40176  0.55137  0.35377  1.0000
  C   C378      1.0  0.22537  0.60346  0.48685  1.0000
  H   H652      1.0  0.39633  0.52902  0.36655  1.0000
  H   H653      1.0  0.37842  0.54457  0.47926  1.0000
  H   H654      1.0  0.27846  0.58026  0.54889  1.0000
  H   H655      1.0  0.50338  0.90154  0.63961  1.0000
  H   H656      1.0  0.22560  0.54427  0.49496  1.0000
  H   H657      1.0  0.26065  0.56959  0.47350  1.0000
  H   H658      1.0  0.31844  0.58983  0.48562  1.0000
  H   H659      1.0  0.31618  0.60975  0.51515  1.0000
  H   H660      1.0  0.33888  0.55463  0.51385  1.0000
  H   H661      1.0  0.33863  0.58005  0.54180  1.0000
  H   H662      1.0  0.45939  0.80410  0.64451  1.0000
  C   C379      1.0  0.50290  0.80672  0.49051  1.0000
  H   H663      1.0  0.27787  0.62266  0.49912  1.0000
  H   H664      1.0  0.24589  0.59911  0.52389  1.0000
  H   H665      1.0  0.48517  0.71895  0.46701  1.0000
  H   H666      1.0  0.32968  0.61860  0.42658  1.0000
  H   H667      1.0  0.41728  0.83797  0.52136  1.0000
  H   H668      1.0  0.39992  0.58501  0.62116  1.0000
  C   C380      1.0  0.46920  0.84544  0.58484  1.0000
  H   H669      1.0  0.38064  0.61001  0.49100  1.0000
  H   H670      1.0  0.38068  0.63387  0.51988  1.0000
  H   H671      1.0  0.39688  0.60407  0.52194  1.0000
  H   H672      1.0  0.44985  0.86283  0.47811  1.0000
  H   H673      1.0  0.37424  0.58168  0.44567  1.0000
  C   C381      1.0  0.41245  0.79976  0.49175  1.0000
  H   H674      1.0  0.19902  0.58120  0.49041  1.0000
  H   H675      1.0  0.22563  0.62759  0.49293  1.0000
  H   H676      1.0  0.23121  0.60506  0.46544  1.0000
  H   H677      1.0  0.40929  0.55820  0.57318  1.0000
  N   N23       1.0  0.39456  0.58707  0.39139  1.0000
  C   C382      1.0  0.37608  0.60727  0.39676  1.0000
  H   H678      1.0  0.49959  0.78818  0.47454  1.0000
  C   C383      1.0  0.38341  0.57095  0.36434  1.0000
  C   C384      1.0  0.36845  0.79237  0.52664  1.0000
  S   S89       1.0  0.48521  0.73501  0.36547  1.0000
  C   C385      1.0  0.33593  0.58603  0.39732  1.0000
  H   H679      1.0  0.35525  0.55188  0.36399  1.0000
  H   H680      1.0  0.30394  0.59637  0.64380  1.0000
  S   S90       1.0  0.41628  0.67429  0.33432  1.0000
  C   C386      1.0  0.32066  0.60846  0.40636  1.0000
  H   H681      1.0  0.38361  0.62803  0.38170  1.0000
  H   H682      1.0  0.38432  0.62132  0.41581  1.0000
  C   C387      1.0  0.46680  0.79956  0.50012  1.0000
  H   H683      1.0  0.44189  0.62204  0.37061  1.0000
  C   C388      1.0  0.26882  0.52851  0.55764  1.0000
  C   C389      1.0  0.42789  0.80991  0.43456  1.0000
  C   C390      1.0  0.26922  0.52169  0.50144  1.0000
  H   H684      1.0  0.30565  0.66760  0.62179  1.0000
  H   H685      1.0  0.36545  0.79854  0.54737  1.0000
  H   H686      1.0  0.50100  0.96635  0.44000  1.0000
  H   H687      1.0  0.47261  0.91147  0.51132  1.0000
  H   H688      1.0  0.33987  0.54484  0.59717  1.0000
  C   C391      1.0  0.35339  0.59795  0.63931  1.0000
  C   C392      1.0  0.38440  0.55646  0.62308  1.0000
  H   H689      1.0  0.52111  0.93289  0.58677  1.0000
  H   H690      1.0  0.52056  0.83009  0.39137  1.0000
  H   H691      1.0  0.29542  0.53270  0.55698  1.0000
  H   H692      1.0  0.50999  0.92357  0.49069  1.0000
  H   H693      1.0  0.51625  0.87533  0.41628  1.0000
  H   H694      1.0  0.37046  0.54694  0.55497  1.0000
  H   H695      1.0  0.38065  0.61627  0.64423  1.0000
  C   C393      1.0  0.38897  0.53719  0.32606  1.0000
  H   H696      1.0  0.35807  0.53703  0.40779  1.0000
  C   C394      1.0  0.37597  0.53669  0.45824  1.0000
  H   H697      1.0  0.49580  0.59784  0.32027  1.0000
  H   H698      1.0  0.51320  0.96170  0.63157  1.0000
  H   H699      1.0  0.34837  0.51794  0.45400  1.0000
  H   H700      1.0  0.36084  0.51820  0.32615  1.0000
  H   H701      1.0  0.31453  0.54479  0.64272  1.0000
  H   H702      1.0  0.40295  0.52396  0.31869  1.0000
  C   C395      1.0  0.51369  0.90613  0.58391  1.0000
  H   H703      1.0  0.11538  0.51447  0.43777  1.0000
  H   H704      1.0  0.42845  0.58664  0.71513  1.0000
  H   H705      1.0  0.40626  0.80791  0.70089  1.0000
  H   H706      1.0  0.24600  0.55351  0.82979  1.0000
  C   C396      1.0  0.47059  0.82798  0.82375  1.0000
  C   C397      1.0  0.36000  0.75851  0.77606  1.0000
  S   S91       1.0  0.20569  0.57122  0.66397  1.0000
  S   S92       1.0  0.43320  0.68669  0.65349  1.0000
  H   H707      1.0  0.45906  0.68601  0.70506  1.0000
  H   H708      1.0  0.48748  0.90852  0.91872  1.0000
  C   C398      1.0  0.39578  0.60789  0.76464  1.0000
  H   H709      1.0  0.08996  0.51996  0.80956  1.0000
  H   H710      1.0  0.47995  0.65867  0.79207  1.0000
  S   S93       1.0  0.46320  0.70954  0.80376  1.0000
  S   S94       1.0  0.37823  0.69054  0.90496  1.0000
  Fe  Fe46      1.0  0.40695  0.69378  0.80560  1.0000
  S   S95       1.0  0.37497  0.68570  0.76853  1.0000
  S   S96       1.0  0.39373  0.65372  0.83736  1.0000
  H   H711      1.0  0.37525  0.75987  0.79384  1.0000
  H   H712      1.0  0.43766  0.84935  0.81420  1.0000
  H   H713      1.0  0.44451  0.69671  0.92017  1.0000
  H   H714      1.0  0.36416  0.75895  0.84716  1.0000
  H   H715      1.0  0.40115  0.63065  0.77699  1.0000
  H   H716      1.0  0.41758  0.61604  0.75062  1.0000
  C   C399      1.0  0.47842  0.63377  0.79254  1.0000
  C   C400      1.0  0.47362  0.61633  0.81642  1.0000
  H   H717      1.0  0.45144  0.92182  0.74083  1.0000
  H   H718      1.0  0.27276  0.65109  0.73479  1.0000
  C   C401      1.0  0.41403  0.59435  0.67555  1.0000
  C   C402      1.0  0.47267  0.58443  0.81694  1.0000
  C   C403      1.0  0.46425  0.88339  0.75550  1.0000
  Fe  Fe47      1.0  0.46957  0.74802  0.83485  1.0000
  H   H719      1.0  0.46931  0.57101  0.83540  1.0000
  H   H720      1.0  0.39724  0.82345  0.75237  1.0000
  C   C404      1.0  0.38737  0.69066  0.68879  1.0000
  C   C405      1.0  0.37484  0.69017  0.71441  1.0000
  C   C406      1.0  0.39270  0.68839  0.73671  1.0000
  H   H721      1.0  0.42209  0.81352  0.77444  1.0000
  C   C407      1.0  0.41167  0.80895  0.75396  1.0000
  H   H722      1.0  0.37322  0.69177  0.67181  1.0000
  H   H723      1.0  0.35114  0.69103  0.71694  1.0000
  C   C408      1.0  0.44105  0.59982  0.69644  1.0000
  H   H724      1.0  0.44613  0.76789  0.76376  1.0000
  C   C409      1.0  0.43085  0.69622  0.93776  1.0000
  C   C410      1.0  0.39787  0.69271  0.93589  1.0000
  C   C411      1.0  0.38040  0.69177  0.95917  1.0000
  H   H725      1.0  0.37641  0.55626  0.82464  1.0000
  H   H726      1.0  0.35472  0.68871  0.95803  1.0000
  C   C412      1.0  0.44625  0.69897  0.96253  1.0000
  C   C413      1.0  0.25029  0.51767  0.73241  1.0000
  H   H727      1.0  0.42097  0.77160  0.97124  1.0000
  C   C414      1.0  0.50253  0.83480  0.83414  1.0000
  H   H728      1.0  0.24922  0.59529  0.83338  1.0000
  H   H729      1.0  0.47124  0.66184  0.91375  1.0000
  C   C415      1.0  0.44443  0.57620  0.95904  1.0000
  H   H730      1.0  0.39481  0.58722  0.77745  1.0000
  S   S97       1.0  0.41401  0.73471  0.83507  1.0000
  H   H731      1.0  0.47403  0.79673  0.88325  1.0000
  H   H732      1.0  0.44633  0.60275  0.89557  1.0000
  C   C416      1.0  0.43492  0.58903  0.91423  1.0000
  C   C417      1.0  0.43560  0.68738  0.70756  1.0000
  C   C418      1.0  0.42825  0.80461  0.70789  1.0000
  H   H733      1.0  0.33551  0.56327  0.67287  1.0000
  H   H734      1.0  0.47167  0.70156  0.96375  1.0000
  H   H735      1.0  0.42066  0.62348  0.93591  1.0000
  Fe  Fe48      1.0  0.45078  0.67259  0.83757  1.0000
  H   H736      1.0  0.46339  0.84373  0.67948  1.0000
  C   C419      1.0  0.47915  0.58650  0.76946  1.0000
  C   C420      1.0  0.48602  0.88799  0.83086  1.0000
  H   H737      1.0  0.46442  0.80181  0.94277  1.0000
  H   H738      1.0  0.50019  0.65045  0.89856  1.0000
  H   H739      1.0  0.29039  0.64621  0.70397  1.0000
  H   H740      1.0  0.33690  0.51627  0.85980  1.0000
  H   H741      1.0  0.44273  0.87371  0.76991  1.0000
  H   H742      1.0  0.51167  0.96678  0.66691  1.0000
  H   H743      1.0  0.39443  0.75326  0.74940  1.0000
  H   H744      1.0  0.33923  0.73119  0.77340  1.0000
  H   H745      1.0  0.37438  0.54619  0.69020  1.0000
  H   H746      1.0  0.43351  0.76696  0.66491  1.0000
  H   H747      1.0  0.21989  0.56506  0.80938  1.0000
  C   C421      1.0  0.46225  0.85451  0.82232  1.0000
  C   C422      1.0  0.42343  0.68751  0.73314  1.0000
  C   C423      1.0  0.41762  0.68879  0.68523  1.0000
  H   H748      1.0  0.52034  0.70438  0.94277  1.0000
  S   S98       1.0  0.46742  0.63347  0.84557  1.0000
  H   H749      1.0  0.44681  0.00258  0.93194  1.0000
  H   H750      1.0  0.36661  0.76655  0.73423  1.0000
  S   S99       1.0  0.51407  0.80245  0.83578  1.0000
  H   H751      1.0  0.43748  0.68605  0.75001  1.0000
  S   S100      1.0  0.46365  0.71297  0.86841  1.0000
  C   C424      1.0  0.47467  0.56913  0.79336  1.0000
  C   C425      1.0  0.48169  0.61908  0.76908  1.0000
  N   N24       1.0  0.44108  0.82249  0.73422  1.0000
  H   H752      1.0  0.49799  0.83450  0.90403  1.0000
  H   H753      1.0  0.47291  0.54404  0.79371  1.0000
  H   H754      1.0  0.34777  0.77479  0.77911  1.0000
  H   H755      1.0  0.41728  0.77620  0.70958  1.0000
  H   H756      1.0  0.21690  0.59136  0.96979  1.0000
  C   C426      1.0  0.38325  0.77036  0.75171  1.0000
  S   S101      1.0  0.47627  0.92144  0.82703  1.0000
  C   C427      1.0  0.45531  0.81675  0.68533  1.0000
  H   H757      1.0  0.37723  0.58279  0.88767  1.0000
  C   C428      1.0  0.48316  0.80590  0.90354  1.0000
  Fe  Fe49      1.0  0.40746  0.69652  0.86678  1.0000
  N   N25       1.0  0.42426  0.80049  0.91760  1.0000
  C   C429      1.0  0.40961  0.78760  0.89043  1.0000
  C   C430      1.0  0.45257  0.79190  0.92310  1.0000
  C   C431      1.0  0.39564  0.78053  0.93732  1.0000
  C   C432      1.0  0.43723  0.83881  0.92121  1.0000
  C   C433      1.0  0.45186  0.86238  0.89650  1.0000
  C   C434      1.0  0.37559  0.78788  0.88396  1.0000
  H   H758      1.0  0.30049  0.52955  0.74524  1.0000
  C   C435      1.0  0.46675  0.90053  0.90376  1.0000
  C   C436      1.0  0.36793  0.78415  0.85440  1.0000
  H   H759      1.0  0.49571  0.93236  0.73485  1.0000
  H   H760      1.0  0.40402  0.76045  0.88781  1.0000
  H   H761      1.0  0.42887  0.80238  0.87488  1.0000
  C   C437      1.0  0.50202  0.59110  0.89745  1.0000
  H   H762      1.0  0.44123  0.76326  0.92382  1.0000
  H   H763      1.0  0.38279  0.75219  0.93313  1.0000
  H   H764      1.0  0.37491  0.78751  0.93540  1.0000
  H   H765      1.0  0.41612  0.84318  0.92864  1.0000
  H   H766      1.0  0.45750  0.84958  0.93683  1.0000
  H   H767      1.0  0.43127  0.85616  0.88164  1.0000
  H   H768      1.0  0.40564  0.54266  0.83759  1.0000
  H   H769      1.0  0.35341  0.76573  0.89392  1.0000
  H   H770      1.0  0.37670  0.81206  0.89091  1.0000
  H   H771      1.0  0.48236  0.93654  0.76743  1.0000
  H   H772      1.0  0.43069  0.58888  0.96798  1.0000
  C   C438      1.0  0.51752  0.56891  0.88831  1.0000
  C   C439      1.0  0.38538  0.53709  0.82254  1.0000
  H   H773      1.0  0.49688  0.54165  0.88521  1.0000
  H   H774      1.0  0.49442  0.83400  0.73252  1.0000
  H   H775      1.0  0.34379  0.78504  0.85053  1.0000
  H   H776      1.0  0.38940  0.80556  0.84334  1.0000
  H   H777      1.0  0.47849  0.81520  0.69130  1.0000
  H   H778      1.0  0.39705  0.54004  0.80269  1.0000
  C   C440      1.0  0.40671  0.78563  0.96677  1.0000
  H   H779      1.0  0.47240  0.85946  0.88672  1.0000
  S   S102      1.0  0.48045  0.56722  0.73989  1.0000
  H   H780      1.0  0.48458  0.59032  0.88156  1.0000
  H   H781      1.0  0.23966  0.55200  0.97825  1.0000
  N   N26       1.0  0.29641  0.57470  0.75577  1.0000
  C   C441      1.0  0.26992  0.56268  0.77764  1.0000
  C   C442      1.0  0.38853  0.55527  0.67123  1.0000
  C   C443      1.0  0.33139  0.58666  0.76842  1.0000
  C   C444      1.0  0.29829  0.60492  0.74083  1.0000
  C   C445      1.0  0.26450  0.59915  0.72756  1.0000
  C   C446      1.0  0.27458  0.59032  0.79841  1.0000
  C   C447      1.0  0.36189  0.59483  0.74937  1.0000
  C   C448      1.0  0.39024  0.60609  0.90047  1.0000
  H   H782      1.0  0.24432  0.62854  0.70754  1.0000
  C   C449      1.0  0.26837  0.63344  0.71792  1.0000
  C   C450      1.0  0.24563  0.57500  0.81892  1.0000
  H   H783      1.0  0.52033  0.80371  0.93053  1.0000
  H   H784      1.0  0.26982  0.54079  0.78834  1.0000
  H   H785      1.0  0.24326  0.55197  0.76980  1.0000
  C   C451      1.0  0.44018  0.79412  0.66078  1.0000
  H   H786      1.0  0.44611  0.90525  0.91151  1.0000
  H   H787      1.0  0.32987  0.56689  0.78271  1.0000
  H   H788      1.0  0.33955  0.61069  0.78009  1.0000
  H   H789      1.0  0.30815  0.62805  0.75384  1.0000
  H   H790      1.0  0.31762  0.61307  0.72469  1.0000
  H   H791      1.0  0.24212  0.58758  0.74116  1.0000
  H   H792      1.0  0.25872  0.58218  0.71003  1.0000
  H   H793      1.0  0.29943  0.60026  0.80921  1.0000
  H   H794      1.0  0.27375  0.61239  0.78895  1.0000
  H   H795      1.0  0.36576  0.61517  0.73502  1.0000
  H   H796      1.0  0.35744  0.57154  0.73815  1.0000
  H   H797      1.0  0.45277  0.80262  0.81614  1.0000
  H   H798      1.0  0.26824  0.63689  0.65985  1.0000
  H   H799      1.0  0.43363  0.86414  0.71974  1.0000
  C   C452      1.0  0.46474  0.78158  0.74759  1.0000
  H   H800      1.0  0.47703  0.87245  0.71723  1.0000
  C   C453      1.0  0.34059  0.56168  0.65156  1.0000
  H   H801      1.0  0.33429  0.61785  0.67053  1.0000
  H   H802      1.0  0.47806  0.91686  0.88597  1.0000
  H   H803      1.0  0.48470  0.99978  0.92345  1.0000
  C   C454      1.0  0.40826  0.59967  0.92367  1.0000
  H   H804      1.0  0.45506  0.76655  0.72908  1.0000
  H   H805      1.0  0.46521  0.54949  0.92209  1.0000
  H   H806      1.0  0.45787  0.58952  0.68943  1.0000
  H   H807      1.0  0.48543  0.63262  0.75060  1.0000
  C   C455      1.0  0.28889  0.54495  0.73736  1.0000
  H   H808      1.0  0.42356  0.81344  0.97157  1.0000
  C   C456      1.0  0.45381  0.86064  0.73015  1.0000
  C   C457      1.0  0.49418  0.65881  0.91736  1.0000
  C   C458      1.0  0.47090  0.81888  0.74478  1.0000
  H   H809      1.0  0.47635  0.64139  0.95663  1.0000
  H   H810      1.0  0.37057  0.61249  0.90789  1.0000
  C   C459      1.0  0.47403  0.92074  0.74910  1.0000
  C   C460      1.0  0.48671  0.63261  0.94014  1.0000
  H   H811      1.0  0.39977  0.60737  0.68274  1.0000
  H   H812      1.0  0.30146  0.55508  0.71790  1.0000
  N   N27       1.0  0.46266  0.59472  0.93400  1.0000
  H   H813      1.0  0.42001  0.56117  0.90847  1.0000
  H   H814      1.0  0.38807  0.57855  0.93583  1.0000
  H   H815      1.0  0.50309  0.58124  0.93836  1.0000
  Fe  Fe50      1.0  0.16853  0.51562  0.65387  1.0000
  C   C461      1.0  0.51737  0.89441  0.84207  1.0000
  H   H816      1.0  0.40941  0.62835  0.88860  1.0000
  H   H817      1.0  0.47848  0.83060  0.76478  1.0000
  H   H818      1.0  0.23444  0.52960  0.72700  1.0000
  H   H819      1.0  0.49525  0.76474  0.91149  1.0000
  C   C462      1.0  0.48276  0.57787  0.92399  1.0000
  H   H820      1.0  0.42399  0.54906  0.95455  1.0000
  H   H821      1.0  0.41658  0.79444  0.65392  1.0000
  H   H822      1.0  0.45771  0.62791  0.70047  1.0000
  H   H823      1.0  0.40387  0.54169  0.66923  1.0000
  H   H824      1.0  0.51199  0.63648  0.94754  1.0000
  H   H825      1.0  0.49342  0.75499  0.75605  1.0000
  H   H826      1.0  0.42831  0.60739  0.65737  1.0000
  H   H827      1.0  0.48685  0.88399  0.76531  1.0000
  H   H828      1.0  0.51836  0.79561  0.73937  1.0000
  H   H829      1.0  0.47635  0.55558  0.97542  1.0000
  H   H830      1.0  0.50563  0.90915  0.67433  1.0000
  C   C463      1.0  0.51552  0.92181  0.65501  1.0000
  H   H831      1.0  0.51731  0.81016  0.65628  1.0000
  C   C464      1.0  0.33164  0.61363  0.64887  1.0000
  C   C465      1.0  0.49835  0.78198  0.75472  1.0000
  H   H832      1.0  0.43269  0.51543  0.88293  1.0000
  C   C466      1.0  0.50853  0.79345  0.91096  1.0000
  H   H833      1.0  0.50829  0.79482  0.77411  1.0000
  H   H834      1.0  0.47430  0.93398  0.64970  1.0000
  C   C467      1.0  0.50303  0.94776  0.65051  1.0000
  N   N28       1.0  0.36368  0.54586  0.64832  1.0000
  Fe  Fe51      1.0  0.83244  0.32196  0.13316  1.0000
  S   S103      1.0  0.83013  0.27063  0.13080  1.0000
  S   S104      1.0  0.83393  0.35239  0.09652  1.0000
  Fe  Fe52      1.0  0.83379  0.32119  0.19492  1.0000
  S   S105      1.0  0.83245  0.27029  0.19595  1.0000
  S   S106      1.0  0.83479  0.34875  0.23291  1.0000
  Fe  Fe53      1.0  0.87069  0.29201  0.16270  1.0000
  S   S107      1.0  0.91906  0.28782  0.15938  1.0000
  Fe  Fe54      1.0  0.79221  0.25521  0.16426  1.0000
  S   S108      1.0  0.73930  0.20844  0.16895  1.0000
  S   S109      1.0  0.87474  0.34427  0.16350  1.0000
  S   S110      1.0  0.79177  0.30532  0.16466  1.0000
  H   H835      1.0  0.86022  0.21535  0.15099  1.0000
  H   H836      1.0  0.58722  0.16347  0.15934  1.0000
  C   C468      1.0  0.62111  0.25193  0.18667  1.0000
  C   C469      1.0  0.53263  0.39666  0.05268  1.0000
  S   S111      1.0  0.62965  0.06255  0.26585  1.0000
  C   C470      1.0  0.53521  0.38223  0.09893  1.0000
  Fe  Fe55      1.0  0.64865  0.04767  0.08893  1.0000
  S   S112      1.0  0.70551  0.08537  0.09092  1.0000
  H   H837      1.0  0.91694  0.30686  0.23998  1.0000
  S   S113      1.0  0.60852  0.06442  0.08800  1.0000
  C   C471      1.0  0.60867  0.03277  0.98224  1.0000
  C   C472      1.0  0.57456  0.03284  0.18528  1.0000
  C   C473      1.0  0.53768  0.27197  0.11854  1.0000
  H   H838      1.0  0.91822  0.34797  0.23890  1.0000
  S   S114      1.0  0.69536  0.35935  0.01337  1.0000
  H   H839      1.0  0.54583  0.45104  0.05946  1.0000
  S   S115      1.0  0.55830  0.02714  0.01746  1.0000
  C   C474      1.0  0.91395  0.32613  0.25196  1.0000
  H   H840      1.0  0.75824  0.35878  0.00334  1.0000
  H   H841      1.0  0.93516  0.35277  0.18384  1.0000
  H   H842      1.0  0.96599  0.34882  0.26585  1.0000
  C   C475      1.0  0.98712  0.35354  0.99477  1.0000
  H   H843      1.0  0.67800  0.03308  0.19073  1.0000
  S   S116      1.0  0.53626  0.18567  0.23790  1.0000
  H   H844      1.0  0.00551  0.37821  0.07112  1.0000
  H   H845      1.0  0.72151  0.29722  0.14079  1.0000
  H   H846      1.0  0.56060  0.44692  0.01285  1.0000
  H   H847      1.0  0.74149  0.05563  0.19395  1.0000
  Fe  Fe56      1.0  0.57807  0.30263  0.27863  1.0000
  H   H848      1.0  0.92621  0.45728  0.12701  1.0000
  H   H849      1.0  0.54608  0.11405  0.12777  1.0000
  C   C476      1.0  0.62688  0.05616  0.21194  1.0000
  C   C477      1.0  0.82079  0.14237  0.23503  1.0000
  Fe  Fe57      1.0  0.64001  0.33999  0.00234  1.0000
  H   H850      1.0  0.85647  0.17330  0.15427  1.0000
  C   C478      1.0  0.82831  0.32889  0.26431  1.0000
  C   C479      1.0  0.81608  0.29336  0.26726  1.0000
  C   C480      1.0  0.83531  0.34943  0.28697  1.0000
  H   H851      1.0  0.81025  0.27714  0.25002  1.0000
  H   H852      1.0  0.84445  0.37685  0.28494  1.0000
  C   C481      1.0  0.83825  0.33997  0.06413  1.0000
  C   C482      1.0  0.84169  0.36167  0.04279  1.0000
  C   C483      1.0  0.84357  0.35181  0.01667  1.0000
  C   C484      1.0  0.84208  0.32013  0.01169  1.0000
  C   C485      1.0  0.83934  0.29884  0.03307  1.0000
  C   C486      1.0  0.83742  0.30866  0.05913  1.0000
  H   H853      1.0  0.84232  0.38595  0.04643  1.0000
  H   H854      1.0  0.84547  0.36837  0.00040  1.0000
  H   H855      1.0  0.83820  0.27432  0.02942  1.0000
  H   H856      1.0  0.83481  0.29170  0.07526  1.0000
  C   C487      1.0  0.73026  0.17421  0.14743  1.0000
  C   C488      1.0  0.69755  0.14447  0.14800  1.0000
  C   C489      1.0  0.68971  0.11705  0.13059  1.0000
  C   C490      1.0  0.71479  0.11923  0.11285  1.0000
  C   C491      1.0  0.74767  0.14871  0.11264  1.0000
  C   C492      1.0  0.75534  0.17625  0.12984  1.0000
  H   H857      1.0  0.67829  0.14256  0.16193  1.0000
  H   H858      1.0  0.66440  0.09414  0.13100  1.0000
  H   H859      1.0  0.76707  0.15040  0.09893  1.0000
  H   H860      1.0  0.78061  0.19903  0.12937  1.0000
  C   C493      1.0  0.98566  0.33458  0.14435  1.0000
  C   C494      1.0  0.95642  0.32905  0.15874  1.0000
  H   H861      1.0  0.53320  0.27440  0.16078  1.0000
  H   H862      1.0  0.52757  0.01674  0.20718  1.0000
  H   H863      1.0  0.55408  0.37443  0.09180  1.0000
  H   H864      1.0  0.57840  0.44104  0.07048  1.0000
  H   H865      1.0  0.56797  0.23886  0.19513  1.0000
  C   C495      1.0  0.93998  0.33887  0.27474  1.0000
  C   C496      1.0  0.61046  0.04712  0.18713  1.0000
  H   H866      1.0  0.84891  0.47674  0.98183  1.0000
  S   S117      1.0  0.54465  0.03617  0.30767  1.0000
  C   C497      1.0  0.62386  0.22792  0.20742  1.0000
  C   C498      1.0  0.95634  0.35704  0.17117  1.0000
  H   H867      1.0  0.00419  0.41436  0.29147  1.0000
  H   H868      1.0  0.61609  0.11921  0.13570  1.0000
  C   C499      1.0  0.73206  0.06979  0.18154  1.0000
  N   N29       1.0  0.76936  0.12976  0.20409  1.0000
  C   C500      1.0  0.60703  0.42833  0.29885  1.0000
  C   C501      1.0  0.61436  0.14325  0.13736  1.0000
  H   H869      1.0  0.65306  0.17169  0.20542  1.0000
  C   C502      1.0  0.01230  0.39652  0.15208  1.0000
  C   C503      1.0  0.75369  0.37163  0.98712  1.0000
  H   H870      1.0  0.88708  0.31355  0.25964  1.0000
  H   H871      1.0  0.78905  0.09543  0.21393  1.0000
  H   H872      1.0  0.59765  0.47808  0.03128  1.0000
  H   H873      1.0  0.92372  0.43371  0.15662  1.0000
  H   H874      1.0  0.89071  0.41357  0.13171  1.0000
  C   C504      1.0  0.68261  0.24030  0.19393  1.0000
  H   H875      1.0  0.70332  0.23477  0.20042  1.0000
  H   H876      1.0  0.98438  0.34892  0.01631  1.0000
  H   H877      1.0  0.62560  0.05148  0.16943  1.0000
  H   H878      1.0  0.59410  0.13185  0.17647  1.0000
  C   C505      1.0  0.78517  0.11580  0.22342  1.0000
  H   H879      1.0  0.91450  0.27395  0.07263  1.0000
  C   C506      1.0  0.54939  0.28628  0.14381  1.0000
  H   H880      1.0  0.89509  0.28779  0.09751  1.0000
  C   C507      1.0  0.58367  0.23850  0.17833  1.0000
  C   C508      1.0  0.57175  0.39531  0.30414  1.0000
  Fe  Fe58      1.0  0.60160  0.05479  0.30495  1.0000
  C   C509      1.0  0.55894  0.43598  0.05489  1.0000
  H   H881      1.0  0.55251  0.08514  0.14806  1.0000
  H   H882      1.0  0.94533  0.38984  0.27710  1.0000
  H   H883      1.0  0.52589  0.07737  0.24432  1.0000
  C   C510      1.0  0.67415  0.27058  0.23286  1.0000
  H   H884      1.0  0.63995  0.16463  0.14388  1.0000
  C   C511      1.0  0.70154  0.27577  0.17931  1.0000
  H   H885      1.0  0.55139  0.40957  0.10549  1.0000
  C   C512      1.0  0.86385  0.46294  0.98406  1.0000
  C   C513      1.0  0.70622  0.27130  0.14998  1.0000
  C   C514      1.0  0.72779  0.32062  0.25393  1.0000
  H   H886      1.0  0.65590  0.26742  0.24907  1.0000
  H   H887      1.0  0.67570  0.29230  0.22115  1.0000
  C   C515      1.0  0.72432  0.37550  0.98688  1.0000
  C   C516      1.0  0.55534  0.02786  0.20844  1.0000
  H   H888      1.0  0.72741  0.29212  0.18833  1.0000
  H   H889      1.0  0.68826  0.29110  0.18052  1.0000
  C   C517      1.0  0.52400  0.17146  0.29052  1.0000
  H   H890      1.0  0.53134  0.35261  0.16353  1.0000
  Fe  Fe59      1.0  0.58411  0.02434  0.05566  1.0000
  H   H891      1.0  0.54799  0.38401  0.04727  1.0000
  H   H892      1.0  0.61192  0.16196  0.21959  1.0000
  H   H893      1.0  0.68076  0.25729  0.13987  1.0000
  C   C518      1.0  0.57868  0.45008  0.02910  1.0000
  H   H894      1.0  0.68245  0.21543  0.24272  1.0000
  H   H895      1.0  0.81352  0.11681  0.27310  1.0000
  H   H896      1.0  0.71135  0.32540  0.26786  1.0000
  C   C519      1.0  0.53747  0.16586  0.26736  1.0000
  H   H897      1.0  0.60724  0.22569  0.22453  1.0000
  H   H898      1.0  0.70666  0.26714  0.26404  1.0000
  Fe  Fe60      1.0  0.57881  0.34906  0.98814  1.0000
  H   H899      1.0  0.00568  0.40435  0.04356  1.0000
  H   H900      1.0  0.80303  0.12576  0.17494  1.0000
  C   C520      1.0  0.63979  0.17230  0.22377  1.0000
  C   C521      1.0  0.57180  0.03715  0.23323  1.0000
  C   C522      1.0  0.76521  0.15871  0.21583  1.0000
  H   H901      1.0  0.65465  0.06743  0.21318  1.0000
  C   C523      1.0  0.84156  0.18719  0.15266  1.0000
  N   N30       1.0  0.72273  0.29853  0.06117  1.0000
  C   C524      1.0  0.71841  0.28735  0.03261  1.0000
  C   C525      1.0  0.68864  0.29262  0.07235  1.0000
  C   C526      1.0  0.74795  0.33703  0.06210  1.0000
  C   C527      1.0  0.73775  0.28085  0.07753  1.0000
  C   C528      1.0  0.71691  0.24088  0.07821  1.0000
  C   C529      1.0  0.75093  0.29034  0.01887  1.0000
  C   C530      1.0  0.75262  0.35513  0.08925  1.0000
  C   C531      1.0  0.65497  0.26032  0.06265  1.0000
  C   C532      1.0  0.62360  0.25533  0.07846  1.0000
  C   C533      1.0  0.73824  0.22617  0.09048  1.0000
  H   H902      1.0  0.63488  0.25232  0.16841  1.0000
  C   C534      1.0  0.77763  0.39405  0.08702  1.0000
  H   H903      1.0  0.70917  0.30240  0.02090  1.0000
  H   H904      1.0  0.69804  0.25996  0.03017  1.0000
  H   H905      1.0  0.68918  0.29180  0.09428  1.0000
  H   H906      1.0  0.68467  0.31488  0.06732  1.0000
  H   H907      1.0  0.74003  0.35079  0.04783  1.0000
  H   H908      1.0  0.77418  0.34276  0.05599  1.0000
  H   H909      1.0  0.76466  0.28912  0.07109  1.0000
  H   H910      1.0  0.74069  0.28935  0.09838  1.0000
  H   H911      1.0  0.70911  0.22946  0.05827  1.0000
  H   H912      1.0  0.69352  0.23225  0.09063  1.0000
  H   H913      1.0  0.77280  0.31712  0.01956  1.0000
  H   H914      1.0  0.75908  0.27301  0.02835  1.0000
  H   H915      1.0  0.76345  0.34485  0.10413  1.0000
  H   H916      1.0  0.72776  0.35179  0.09682  1.0000
  H   H917      1.0  0.65008  0.26388  0.04170  1.0000
  H   H918      1.0  0.65636  0.23625  0.06406  1.0000
  H   H919      1.0  0.59973  0.23266  0.07074  1.0000
  H   H920      1.0  0.62650  0.25088  0.09963  1.0000
  H   H921      1.0  0.62047  0.27848  0.07653  1.0000
  H   H922      1.0  0.76161  0.23300  0.07842  1.0000
  H   H923      1.0  0.74644  0.23630  0.11080  1.0000
  H   H924      1.0  0.72232  0.19751  0.09138  1.0000
  C   C535      1.0  0.62860  0.42083  0.27925  1.0000
  C   C536      1.0  0.01410  0.34459  0.98323  1.0000
  H   H925      1.0  0.58306  0.25523  0.16249  1.0000
  H   H926      1.0  0.78085  0.40641  0.10663  1.0000
  H   H927      1.0  0.80345  0.39905  0.08020  1.0000
  H   H928      1.0  0.76744  0.40602  0.07297  1.0000
  N   N31       1.0  0.94965  0.39436  0.07745  1.0000
  C   C537      1.0  0.93935  0.39165  0.04879  1.0000
  C   C538      1.0  0.93488  0.35851  0.08946  1.0000
  C   C539      1.0  0.93392  0.41301  0.09181  1.0000
  C   C540      1.0  0.98836  0.41510  0.08133  1.0000
  C   C541      1.0  0.60494  0.12532  0.99904  1.0000
  C   C542      1.0  0.95060  0.42624  0.03419  1.0000
  C   C543      1.0  0.94009  0.41693  0.12206  1.0000
  C   C544      1.0  0.93064  0.32869  0.07106  1.0000
  C   C545      1.0  0.91933  0.29526  0.08644  1.0000
  H   H929      1.0  0.80639  0.19672  0.17514  1.0000
  C   C546      1.0  0.94304  0.42018  0.00465  1.0000
  C   C547      1.0  0.91883  0.43130  0.13503  1.0000
  H   H930      1.0  0.91067  0.37582  0.04701  1.0000
  H   H931      1.0  0.94948  0.37744  0.03725  1.0000
  H   H932      1.0  0.95047  0.35910  0.10687  1.0000
  H   H933      1.0  0.90832  0.34950  0.09737  1.0000
  H   H934      1.0  0.90550  0.39974  0.08812  1.0000
  H   H935      1.0  0.94442  0.43983  0.08430  1.0000
  H   H936      1.0  0.99798  0.44310  0.07771  1.0000
  H   H937      1.0  0.99498  0.41382  0.10227  1.0000
  H   H938      1.0  0.61489  0.41214  0.26005  1.0000
  H   H939      1.0  0.55671  0.03334  0.25084  1.0000
  H   H940      1.0  0.93595  0.43869  0.04167  1.0000
  H   H941      1.0  0.97871  0.44443  0.03666  1.0000
  H   H942      1.0  0.96779  0.43513  0.12653  1.0000
  H   H943      1.0  0.93290  0.39184  0.13150  1.0000
  H   H944      1.0  0.91031  0.32305  0.05604  1.0000
  H   H945      1.0  0.95492  0.33516  0.06066  1.0000
  H   H946      1.0  0.93982  0.29850  0.10053  1.0000
  C   C548      1.0  0.83212  0.12584  0.25641  1.0000
  C   C549      1.0  0.98382  0.39073  0.16740  1.0000
  S   S118      1.0  0.54191  0.29195  0.98976  1.0000
  N   N32       1.0  0.65977  0.23765  0.21686  1.0000
  H   H947      1.0  0.91025  0.35760  0.29522  1.0000
  C   C550      1.0  0.60768  0.05103  0.23512  1.0000
  H   H948      1.0  0.52732  0.41743  0.29532  1.0000
  S   S119      1.0  0.60461  0.35116  0.02671  1.0000
  S   S120      1.0  0.60736  0.28224  0.00457  1.0000
  C   C551      1.0  0.55335  0.12843  0.29122  1.0000
  H   H949      1.0  0.62824  0.35298  0.12684  1.0000
  Fe  Fe61      1.0  0.57337  0.30601  0.21717  1.0000
  H   H950      1.0  0.60713  0.32832  0.08230  1.0000
  H   H951      1.0  0.98292  0.41239  0.17631  1.0000
  C   C552      1.0  0.60280  0.33047  0.12461  1.0000
  C   C553      1.0  0.59082  0.31655  0.09929  1.0000
  H   H952      1.0  0.75301  0.16768  0.20106  1.0000
  S   S121      1.0  0.55287  0.02173  0.15448  1.0000
  H   H953      1.0  0.63148  0.27868  0.19424  1.0000
  H   H954      1.0  0.53717  0.15381  0.18351  1.0000
  Fe  Fe62      1.0  0.58085  0.02083  0.11712  1.0000
  H   H955      1.0  0.62842  0.12084  0.23478  1.0000
  S   S122      1.0  0.59956  0.33248  0.17873  1.0000
  H   H956      1.0  0.86795  0.46064  0.00540  1.0000
  S   S123      1.0  0.59494  0.28176  0.24481  1.0000
  H   H957      1.0  0.84079  0.15170  0.21937  1.0000
  H   H958      1.0  0.71966  0.11108  0.18503  1.0000
  H   H959      1.0  0.60847  0.14996  0.11766  1.0000
  H   H960      1.0  0.56645  0.36866  0.14031  1.0000
  C   C554      1.0  0.58245  0.31512  0.14709  1.0000
  H   H961      1.0  0.52276  0.47707  0.31202  1.0000
  H   H962      1.0  0.60341  0.44918  0.29014  1.0000
  C   C555      1.0  0.55223  0.14443  0.26770  1.0000
  C   C556      1.0  0.54348  0.37044  0.14662  1.0000
  C   C557      1.0  0.73359  0.10074  0.19700  1.0000
  H   H963      1.0  0.56289  0.14031  0.24985  1.0000
  H   H964      1.0  0.82022  0.16474  0.24414  1.0000
  H   H965      1.0  0.63384  0.40049  0.28704  1.0000
  Fe  Fe63      1.0  0.57058  0.29363  0.02698  1.0000
  C   C558      1.0  0.01066  0.40422  0.06494  1.0000
  H   H966      1.0  0.93409  0.31623  0.28732  1.0000
  H   H967      1.0  0.00150  0.37388  0.29856  1.0000
  H   H968      1.0  0.98619  0.31293  0.13512  1.0000
  H   H969      1.0  0.91506  0.40203  0.00112  1.0000
  C   C559      1.0  0.93804  0.36762  0.29075  1.0000
  H   H970      1.0  0.60467  0.22227  0.28796  1.0000
  Fe  Fe64      1.0  0.54036  0.23749  0.24550  1.0000
  H   H971      1.0  0.95009  0.44511  0.99486  1.0000
  H   H972      1.0  0.65380  0.44470  0.27588  1.0000
  C   C560      1.0  0.71001  0.28251  0.24590  1.0000
  H   H973      1.0  0.74782  0.07834  0.16329  1.0000
  H   H974      1.0  0.72776  0.27889  0.23263  1.0000
  C   C561      1.0  0.81888  0.18049  0.17700  1.0000
  H   H975      1.0  0.72782  0.17619  0.27014  1.0000
  H   H976      1.0  0.72014  0.25665  0.14713  1.0000
  H   H977      1.0  0.64109  0.20828  0.25311  1.0000
  C   C562      1.0  0.74329  0.15026  0.24135  1.0000
  H   H978      1.0  0.62675  0.14882  0.00800  1.0000
  C   C563      1.0  0.55847  0.28676  0.09618  1.0000
  S   S124      1.0  0.56362  0.33283  0.25100  1.0000
  C   C564      1.0  0.65647  0.20947  0.23536  1.0000
  C   C565      1.0  0.55032  0.10895  0.14860  1.0000
  C   C566      1.0  0.58659  0.13835  0.15736  1.0000
  H   H979      1.0  0.55221  0.39728  0.15342  1.0000
  H   H980      1.0  0.93239  0.33744  0.99165  1.0000
  H   H981      1.0  0.59304  0.43638  0.02382  1.0000
  S   S125      1.0  0.54357  0.26661  0.06497  1.0000
  C   C567      1.0  0.81143  0.27878  0.29267  1.0000
  H   H982      1.0  0.61130  0.20218  0.19784  1.0000
  C   C568      1.0  0.69497  0.04399  0.17322  1.0000
  H   H983      1.0  0.66878  0.15450  0.24771  1.0000
  H   H984      1.0  0.95837  0.40939  0.99556  1.0000
  H   H985      1.0  0.66734  0.21949  0.17932  1.0000
  H   H986      1.0  0.55753  0.38703  0.28501  1.0000
  H   H987      1.0  0.99470  0.38094  0.99101  1.0000
  H   H988      1.0  0.77091  0.20275  0.25742  1.0000
  H   H989      1.0  0.73322  0.33731  0.23627  1.0000
  H   H990      1.0  0.68451  0.05674  0.16021  1.0000
  H   H991      1.0  0.56479  0.11191  0.29147  1.0000
  C   C569      1.0  0.64155  0.14722  0.24339  1.0000
  H   H992      1.0  0.73378  0.19373  0.23723  1.0000
  H   H993      1.0  0.80218  0.25137  0.29478  1.0000
  H   H994      1.0  0.83397  0.10360  0.24830  1.0000
  C   C570      1.0  0.57387  0.02298  0.98622  1.0000
  C   C571      1.0  0.74405  0.18278  0.25213  1.0000
  H   H995      1.0  0.61247  0.10495  0.99783  1.0000
  H   H996      1.0  0.71578  0.13087  0.23744  1.0000
  C   C572      1.0  0.01365  0.36835  0.14102  1.0000
  H   H997      1.0  0.71771  0.08943  0.21503  1.0000
  H   H998      1.0  0.82555  0.17871  0.13445  1.0000
  H   H999      1.0  0.85801  0.14525  0.26408  1.0000
  H   H1000     1.0  0.79059  0.18177  0.22029  1.0000
  H   H1001     1.0  0.83605  0.18956  0.19446  1.0000
  H   H1002     1.0  0.62819  0.14652  0.26209  1.0000
  H   H1003     1.0  0.75342  0.14026  0.25701  1.0000
  H   H1004     1.0  0.75291  0.32791  0.26365  1.0000
  H   H1005     1.0  0.77349  0.13746  0.16167  1.0000
  H   H1006     1.0  0.76703  0.10239  0.24001  1.0000
  C   C573      1.0  0.79060  0.14172  0.17898  1.0000
  H   H1007     1.0  0.57219  0.21192  0.17032  1.0000
  H   H1008     1.0  0.62650  0.04179  0.99871  1.0000
  H   H1009     1.0  0.54855  0.11289  0.20203  1.0000
  H   H1010     1.0  0.91686  0.41228  0.30428  1.0000
  H   H1011     1.0  0.57801  0.37480  0.30929  1.0000
  C   C574      1.0  0.74383  0.28013  0.98981  1.0000
  C   C575      1.0  0.95132  0.33114  0.98253  1.0000
  C   C576      1.0  0.99737  0.39452  0.30723  1.0000
  S   S126      1.0  0.52478  0.25679  0.28104  1.0000
  H   H1012     1.0  0.75978  0.37968  0.31285  1.0000
  H   H1013     1.0  0.58200  0.11604  0.01210  1.0000
  H   H1014     1.0  0.76694  0.28080  0.98087  1.0000
  H   H1015     1.0  0.53142  0.15307  0.14870  1.0000
  H   H1016     1.0  0.53190  0.41229  0.22736  1.0000
  H   H1017     1.0  0.56305  0.45058  0.31265  1.0000
  H   H1018     1.0  0.72149  0.25354  0.98757  1.0000
  H   H1019     1.0  0.69461  0.02236  0.16200  1.0000
  H   H1020     1.0  0.66266  0.26846  0.30142  1.0000
  H   H1021     1.0  0.77342  0.34760  0.31016  1.0000
  H   H1022     1.0  0.60262  0.25824  0.30235  1.0000
  C   C577      1.0  0.60807  0.23689  0.30650  1.0000
  H   H1023     1.0  0.94210  0.30321  0.98581  1.0000
  H   H1024     1.0  0.00365  0.31645  0.98675  1.0000
  H   H1025     1.0  0.52940  0.06996  0.19077  1.0000
  C   C578      1.0  0.52473  0.09221  0.19246  1.0000
  C   C579      1.0  0.83055  0.33483  0.31228  1.0000
  C   C580      1.0  0.53956  0.42484  0.31520  1.0000
  H   H1026     1.0  0.91176  0.26832  0.56259  1.0000
  S   S127      1.0  0.64401  0.06884  0.40220  1.0000
  Fe  Fe65      1.0  0.56081  0.07743  0.33866  1.0000
  H   H1027     1.0  0.59901  0.38530  0.34982  1.0000
  S   S128      1.0  0.61786  0.09850  0.33411  1.0000
  Fe  Fe66      1.0  0.88327  0.37254  0.41467  1.0000
  S   S129      1.0  0.86336  0.31529  0.41517  1.0000
  Fe  Fe67      1.0  0.81110  0.36314  0.41433  1.0000
  S   S130      1.0  0.78584  0.30539  0.41482  1.0000
  S   S131      1.0  0.77653  0.38610  0.41058  1.0000
  Fe  Fe68      1.0  0.82597  0.31420  0.44567  1.0000
  Fe  Fe69      1.0  0.82577  0.31304  0.38433  1.0000
  S   S132      1.0  0.81276  0.28036  0.34704  1.0000
  S   S133      1.0  0.84863  0.37189  0.44698  1.0000
  S   S134      1.0  0.84824  0.37035  0.38206  1.0000
  C   C581      1.0  0.75302  0.38055  0.43954  1.0000
  C   C582      1.0  0.72613  0.38829  0.43967  1.0000
  C   C583      1.0  0.70635  0.38283  0.46250  1.0000
  H   H1028     1.0  0.72038  0.39820  0.42204  1.0000
  H   H1029     1.0  0.68575  0.38902  0.46253  1.0000
  H   H1030     1.0  0.56021  0.18461  0.55863  1.0000
  H   H1031     1.0  0.80903  0.41151  0.61097  1.0000
  C   C584      1.0  0.95912  0.36441  0.42095  1.0000
  C   C585      1.0  0.98272  0.35216  0.41961  1.0000
  H   H1032     1.0  0.93417  0.34873  0.42999  1.0000
  H   H1033     1.0  0.97565  0.32682  0.42730  1.0000
  C   C586      1.0  0.96824  0.39716  0.41102  1.0000
  C   C587      1.0  0.00063  0.35909  0.56620  1.0000
  C   C588      1.0  0.66362  0.18198  0.41138  1.0000
  H   H1034     1.0  0.54843  0.46771  0.58017  1.0000
  C   C589      1.0  0.62561  0.06682  0.43357  1.0000
  H   H1035     1.0  0.63216  0.27206  0.39554  1.0000
  S   S135      1.0  0.60052  0.28516  0.50304  1.0000
  H   H1036     1.0  0.64902  0.22874  0.31973  1.0000
  C   C590      1.0  0.90586  0.28701  0.57279  1.0000
  C   C591      1.0  0.55980  0.41879  0.55765  1.0000
  H   H1037     1.0  0.67767  0.23960  0.36712  1.0000
  H   H1038     1.0  0.83573  0.35103  0.32936  1.0000
  H   H1039     1.0  0.56472  0.07950  0.46452  1.0000
  S   S136      1.0  0.82763  0.34980  0.59616  1.0000
  S   S137      1.0  0.60111  0.01854  0.33617  1.0000
  H   H1040     1.0  0.54882  0.41087  0.36595  1.0000
  H   H1041     1.0  0.67173  0.14853  0.53562  1.0000
  C   C592      1.0  0.58627  0.18682  0.55818  1.0000
  C   C593      1.0  0.60644  0.31680  0.62671  1.0000
  Fe  Fe70      1.0  0.65779  0.05554  0.58500  1.0000
  S   S138      1.0  0.71513  0.08981  0.58800  1.0000
  H   H1042     1.0  0.61217  0.33136  0.41238  1.0000
  S   S139      1.0  0.62472  0.08045  0.58619  1.0000
  H   H1043     1.0  0.64634  0.19162  0.41864  1.0000
  S   S140      1.0  0.81277  0.28113  0.48286  1.0000
  Fe  Fe71      1.0  0.63339  0.34293  0.50379  1.0000
  S   S141      1.0  0.68908  0.36282  0.51387  1.0000
  C   C594      1.0  0.71389  0.37024  0.48534  1.0000
  C   C595      1.0  0.74125  0.36319  0.48537  1.0000
  C   C596      1.0  0.76049  0.36784  0.46237  1.0000
  H   H1044     1.0  0.74727  0.35360  0.50300  1.0000
  H   H1045     1.0  0.78114  0.36171  0.46238  1.0000
  H   H1046     1.0  0.90618  0.34654  0.35611  1.0000
  C   C597      1.0  0.59864  0.06521  0.48443  1.0000
  C   C598      1.0  0.62524  0.05738  0.48104  1.0000
  H   H1047     1.0  0.62405  0.13880  0.61137  1.0000
  H   H1048     1.0  0.00066  0.38325  0.56115  1.0000
  C   C599      1.0  0.82392  0.32974  0.56515  1.0000
  C   C600      1.0  0.83311  0.35030  0.54242  1.0000
  C   C601      1.0  0.82955  0.33568  0.51726  1.0000
  C   C602      1.0  0.81710  0.30019  0.51442  1.0000
  C   C603      1.0  0.80833  0.27950  0.53721  1.0000
  C   C604      1.0  0.81170  0.29418  0.56249  1.0000
  H   H1049     1.0  0.84326  0.37785  0.54425  1.0000
  H   H1050     1.0  0.83661  0.35204  0.50010  1.0000
  H   H1051     1.0  0.79881  0.25200  0.53530  1.0000
  H   H1052     1.0  0.80447  0.27792  0.57981  1.0000
  C   C605      1.0  0.72289  0.12115  0.61197  1.0000
  C   C606      1.0  0.75319  0.15340  0.61123  1.0000
  H   H1053     1.0  0.58480  0.40903  0.40319  1.0000
  H   H1054     1.0  0.77253  0.15857  0.59631  1.0000
  C   C607      1.0  0.95122  0.35131  0.33486  1.0000
  C   C608      1.0  0.56685  0.41032  0.35103  1.0000
  C   C609      1.0  0.90509  0.31766  0.51928  1.0000
  C   C610      1.0  0.73489  0.34164  0.58973  1.0000
  C   C611      1.0  0.71267  0.31798  0.56675  1.0000
  C   C612      1.0  0.78827  0.39546  0.62508  1.0000
  C   C613      1.0  0.60935  0.23479  0.59244  1.0000
  C   C614      1.0  0.71847  0.28709  0.56320  1.0000
  H   H1055     1.0  0.72316  0.32732  0.60836  1.0000
  H   H1056     1.0  0.76069  0.34352  0.58876  1.0000
  H   H1057     1.0  0.77677  0.36870  0.54641  1.0000
  H   H1058     1.0  0.68472  0.30771  0.57089  1.0000
  H   H1059     1.0  0.71884  0.33240  0.54792  1.0000
  C   C615      1.0  0.92148  0.40838  0.32522  1.0000
  C   C616      1.0  0.71907  0.25804  0.33816  1.0000
  H   H1060     1.0  0.55399  0.26050  0.33328  1.0000
  H   H1061     1.0  0.70089  0.26963  0.54768  1.0000
  H   H1062     1.0  0.74559  0.29610  0.55699  1.0000
  H   H1063     1.0  0.71320  0.27224  0.58186  1.0000
  S   S142      1.0  0.59898  0.35219  0.53083  1.0000
  H   H1064     1.0  0.56851  0.12036  0.54719  1.0000
  H   H1065     1.0  0.68690  0.20420  0.40270  1.0000
  H   H1066     1.0  0.66361  0.39732  0.56240  1.0000
  H   H1067     1.0  0.89547  0.43607  0.33831  1.0000
  C   C617      1.0  0.52677  0.12536  0.53082  1.0000
  C   C618      1.0  0.61224  0.22554  0.56389  1.0000
  H   H1068     1.0  0.63978  0.28863  0.34086  1.0000
  H   H1069     1.0  0.74339  0.36310  0.35950  1.0000
  S   S143      1.0  0.54044  0.26382  0.56598  1.0000
  H   H1070     1.0  0.95831  0.41882  0.46824  1.0000
  H   H1071     1.0  0.58831  0.43760  0.34966  1.0000
  H   H1072     1.0  0.70588  0.25316  0.31888  1.0000
  H   H1073     1.0  0.59320  0.15584  0.64106  1.0000
  H   H1074     1.0  0.63185  0.25007  0.35724  1.0000
  Fe  Fe72      1.0  0.59027  0.03602  0.61269  1.0000
  H   H1075     1.0  0.97615  0.43482  0.31979  1.0000
  C   C619      1.0  0.58123  0.38830  0.36346  1.0000
  H   H1076     1.0  0.87961  0.28441  0.36656  1.0000
  C   C620      1.0  0.52497  0.15539  0.31399  1.0000
  H   H1077     1.0  0.88242  0.22240  0.59742  1.0000
  H   H1078     1.0  0.96623  0.34110  0.60017  1.0000
  C   C621      1.0  0.58742  0.19296  0.51013  1.0000
  H   H1079     1.0  0.63941  0.23213  0.56055  1.0000
  H   H1080     1.0  0.71228  0.30730  0.31687  1.0000
  N   N33       1.0  0.70135  0.19110  0.45271  1.0000
  C   C622      1.0  0.67341  0.16555  0.43452  1.0000
  C   C623      1.0  0.70327  0.17212  0.47677  1.0000
  C   C624      1.0  0.69037  0.21664  0.46185  1.0000
  C   C625      1.0  0.73632  0.21085  0.43945  1.0000
  C   C626      1.0  0.74469  0.19188  0.41734  1.0000
  C   C627      1.0  0.71325  0.24277  0.48343  1.0000
  C   C628      1.0  0.71453  0.14473  0.47226  1.0000
  C   C629      1.0  0.71195  0.12527  0.49778  1.0000
  C   C630      1.0  0.78240  0.21325  0.40851  1.0000
  C   C631      1.0  0.70537  0.27236  0.48631  1.0000
  H   H1081     1.0  0.64914  0.14913  0.44578  1.0000
  H   H1082     1.0  0.68041  0.14675  0.42620  1.0000
  H   H1083     1.0  0.72240  0.19052  0.49120  1.0000
  H   H1084     1.0  0.67770  0.15920  0.48694  1.0000
  H   H1085     1.0  0.66342  0.20270  0.46951  1.0000
  H   H1086     1.0  0.69004  0.23245  0.44494  1.0000
  H   H1087     1.0  0.73950  0.23489  0.43015  1.0000
  H   H1088     1.0  0.75740  0.22005  0.45444  1.0000
  H   H1089     1.0  0.72826  0.18777  0.39974  1.0000
  H   H1090     1.0  0.74018  0.16618  0.42361  1.0000
  H   H1091     1.0  0.74103  0.25431  0.47859  1.0000
  H   H1092     1.0  0.70850  0.22981  0.50289  1.0000
  H   H1093     1.0  0.69827  0.12537  0.45724  1.0000
  H   H1094     1.0  0.74205  0.15759  0.46606  1.0000
  H   H1095     1.0  0.71952  0.10531  0.49398  1.0000
  H   H1096     1.0  0.72953  0.14332  0.51310  1.0000
  H   H1097     1.0  0.68505  0.11206  0.50544  1.0000
  H   H1098     1.0  0.89495  0.31990  0.32674  1.0000
  H   H1099     1.0  0.78765  0.23867  0.40058  1.0000
  H   H1100     1.0  0.80028  0.21763  0.42524  1.0000
  H   H1101     1.0  0.67762  0.26241  0.49097  1.0000
  H   H1102     1.0  0.72142  0.28985  0.50244  1.0000
  H   H1103     1.0  0.71218  0.28782  0.46791  1.0000
  S   S144      1.0  0.56006  0.26218  0.43000  1.0000
  H   H1104     1.0  0.56048  0.40646  0.57651  1.0000
  H   H1105     1.0  0.64330  0.18303  0.57275  1.0000
  H   H1106     1.0  0.84900  0.23436  0.59887  1.0000
  C   C632      1.0  0.76999  0.36508  0.32390  1.0000
  H   H1107     1.0  0.94957  0.43696  0.49695  1.0000
  C   C633      1.0  0.53953  0.13381  0.31435  1.0000
  H   H1108     1.0  0.00004  0.43947  0.51986  1.0000
  H   H1109     1.0  0.56053  0.40262  0.54128  1.0000
  H   H1110     1.0  0.57004  0.12348  0.51258  1.0000
  C   C634      1.0  0.96624  0.33230  0.57956  1.0000
  H   H1111     1.0  0.73736  0.23086  0.36352  1.0000
  H   H1112     1.0  0.68313  0.16040  0.56953  1.0000
  C   C635      1.0  0.91298  0.33024  0.34370  1.0000
  H   H1113     1.0  0.96283  0.41105  0.34963  1.0000
  H   H1114     1.0  0.95787  0.35119  0.52976  1.0000
  H   H1115     1.0  0.00461  0.34801  0.54776  1.0000
  H   H1116     1.0  0.90143  0.39867  0.56375  1.0000
  H   H1117     1.0  0.60971  0.21990  0.50981  1.0000
  C   C636      1.0  0.96103  0.42114  0.49002  1.0000
  H   H1118     1.0  0.71780  0.27461  0.37756  1.0000
  C   C637      1.0  0.52693  0.42156  0.55559  1.0000
  C   C638      1.0  0.95672  0.40931  0.32817  1.0000
  H   H1119     1.0  0.57504  0.10946  0.64236  1.0000
  H   H1120     1.0  0.94617  0.30691  0.53005  1.0000
  C   C639      1.0  0.63888  0.05852  0.45579  1.0000
  H   H1121     1.0  0.63585  0.05108  0.49791  1.0000
  H   H1122     1.0  0.66377  0.25996  0.40513  1.0000
  H   H1123     1.0  0.60745  0.32014  0.58403  1.0000
  C   C640      1.0  0.65954  0.28217  0.40145  1.0000
  C   C641      1.0  0.58765  0.20296  0.46078  1.0000
  H   H1124     1.0  0.96643  0.36173  0.35336  1.0000
  S   S145      1.0  0.58196  0.06585  0.51602  1.0000
  H   H1125     1.0  0.65987  0.05302  0.45349  1.0000
  H   H1126     1.0  0.87141  0.23420  0.62845  1.0000
  C   C642      1.0  0.01654  0.41807  0.48775  1.0000
  H   H1127     1.0  0.66111  0.32421  0.42466  1.0000
  H   H1128     1.0  0.60659  0.24223  0.55086  1.0000
  H   H1129     1.0  0.66614  0.42725  0.58737  1.0000
  H   H1130     1.0  0.91533  0.40161  0.59763  1.0000
  S   S146      1.0  0.93941  0.41318  0.41229  1.0000
  H   H1131     1.0  0.60445  0.17009  0.47873  1.0000
  H   H1132     1.0  0.53591  0.23535  0.37794  1.0000
  H   H1133     1.0  0.64426  0.38164  0.59448  1.0000
  H   H1134     1.0  0.63157  0.35589  0.36773  1.0000
  H   H1135     1.0  0.68522  0.35351  0.60436  1.0000
  C   C643      1.0  0.93726  0.32530  0.53618  1.0000
  C   C644      1.0  0.62736  0.17697  0.53093  1.0000
  N   N34       1.0  0.73843  0.37717  0.59079  1.0000
  C   C645      1.0  0.75377  0.39361  0.61713  1.0000
  N   N35       1.0  0.54883  0.39823  0.32476  1.0000
  H   H1136     1.0  0.61036  0.38849  0.39800  1.0000
  H   H1137     1.0  0.92625  0.28154  0.61153  1.0000
  C   C646      1.0  0.78806  0.39452  0.55586  1.0000
  H   H1138     1.0  0.80701  0.39628  0.57069  1.0000
  C   C647      1.0  0.64983  0.27036  0.34337  1.0000
  H   H1139     1.0  0.82201  0.44783  0.54320  1.0000
  H   H1140     1.0  0.94169  0.46301  0.33454  1.0000
  H   H1141     1.0  0.00816  0.44309  0.39232  1.0000
  H   H1142     1.0  0.00951  0.41152  0.46658  1.0000
  C   C648      1.0  0.70250  0.37285  0.58954  1.0000
  Fe  Fe73      1.0  0.61074  0.06007  0.36580  1.0000
  C   C649      1.0  0.75949  0.40039  0.56819  1.0000
  H   H1143     1.0  0.75861  0.42067  0.61790  1.0000
  H   H1144     1.0  0.69034  0.36207  0.57009  1.0000
  H   H1145     1.0  0.82669  0.41582  0.52468  1.0000
  C   C650      1.0  0.69801  0.11442  0.63134  1.0000
  H   H1146     1.0  0.55868  0.15369  0.47966  1.0000
  C   C651      1.0  0.80774  0.42149  0.53447  1.0000
  H   H1147     1.0  0.74235  0.39818  0.55141  1.0000
  H   H1148     1.0  0.74533  0.28079  0.33570  1.0000
  H   H1149     1.0  0.91578  0.29384  0.48561  1.0000
  Fe  Fe74      1.0  0.82201  0.32280  0.63532  1.0000
  C   C652      1.0  0.61007  0.32984  0.36986  1.0000
  C   C653      1.0  0.00102  0.41773  0.40002  1.0000
  H   H1150     1.0  0.77204  0.42809  0.57417  1.0000
  H   H1151     1.0  0.78963  0.42099  0.51912  1.0000
  H   H1152     1.0  0.70306  0.41304  0.61511  1.0000
  C   C654      1.0  0.55374  0.27129  0.64570  1.0000
  S   S147      1.0  0.63258  0.02360  0.54916  1.0000
  H   H1153     1.0  0.75714  0.33135  0.35753  1.0000
  H   H1154     1.0  0.69772  0.20282  0.34572  1.0000
  S   S148      1.0  0.61117  0.35124  0.46665  1.0000
  C   C655      1.0  0.59918  0.31591  0.39527  1.0000
  C   C656      1.0  0.58541  0.07356  0.46220  1.0000
  C   C657      1.0  0.59856  0.07403  0.43688  1.0000
  H   H1155     1.0  0.71057  0.32070  0.38931  1.0000
  H   H1156     1.0  0.73872  0.22335  0.32879  1.0000
  C   C658      1.0  0.87445  0.23983  0.60697  1.0000
  N   N36       1.0  0.93263  0.32379  0.56576  1.0000
  C   C659      1.0  0.70067  0.40656  0.59377  1.0000
  C   C660      1.0  0.59352  0.31031  0.34729  1.0000
  H   H1157     1.0  0.67484  0.08936  0.63225  1.0000
  H   H1158     1.0  0.58798  0.08040  0.42002  1.0000
  H   H1159     1.0  0.72175  0.42877  0.58313  1.0000
  C   C661      1.0  0.97274  0.39769  0.63969  1.0000
  N   N37       1.0  0.68608  0.28957  0.35454  1.0000
  H   H1160     1.0  0.79569  0.38382  0.33225  1.0000
  C   C662      1.0  0.68449  0.30663  0.37992  1.0000
  C   C663      1.0  0.59228  0.30671  0.60116  1.0000
  S   S149      1.0  0.53499  0.29699  0.49292  1.0000
  H   H1161     1.0  0.87967  0.28099  0.56590  1.0000
  C   C664      1.0  0.53964  0.26110  0.62020  1.0000
  H   H1162     1.0  0.66073  0.14573  0.38118  1.0000
  H   H1163     1.0  0.89824  0.33829  0.52215  1.0000
  S   S150      1.0  0.55479  0.04214  0.37203  1.0000
  S   S151      1.0  0.54015  0.11375  0.34384  1.0000
  C   C665      1.0  0.90718  0.29928  0.36050  1.0000
  H   H1164     1.0  0.63751  0.16831  0.37341  1.0000
  S   S152      1.0  0.60891  0.32867  0.31569  1.0000
  H   H1165     1.0  0.61996  0.13381  0.39714  1.0000
  H   H1166     1.0  0.67699  0.32670  0.37580  1.0000
  H   H1167     1.0  0.91333  0.28170  0.34908  1.0000
  C   C666      1.0  0.91231  0.31643  0.48991  1.0000
  H   H1168     1.0  0.78528  0.36924  0.62628  1.0000
  H   H1169     1.0  0.73487  0.37932  0.63318  1.0000
  C   C667      1.0  0.64432  0.15579  0.38950  1.0000
  H   H1170     1.0  0.69461  0.19386  0.54521  1.0000
  C   C668      1.0  0.69945  0.26498  0.36056  1.0000
  H   H1171     1.0  0.78773  0.19930  0.39265  1.0000
  Fe  Fe75      1.0  0.56467  0.29471  0.52844  1.0000
  C   C669      1.0  0.56539  0.13490  0.53059  1.0000
  C   C670      1.0  0.62867  0.13835  0.63279  1.0000
  Fe  Fe76      1.0  0.57266  0.35406  0.49351  1.0000
  Fe  Fe77      1.0  0.57512  0.29413  0.46771  1.0000
  C   C671      1.0  0.56650  0.27625  0.35039  1.0000
  C   C672      1.0  0.66473  0.30145  0.42748  1.0000
  C   C673      1.0  0.66648  0.40277  0.58392  1.0000
  H   H1172     1.0  0.91504  0.34491  0.59664  1.0000
  C   C674      1.0  0.58431  0.17736  0.48219  1.0000
  H   H1173     1.0  0.58319  0.44482  0.55619  1.0000
  C   C675      1.0  0.90181  0.27774  0.60263  1.0000
  H   H1174     1.0  0.64552  0.28416  0.44221  1.0000
  C   C676      1.0  0.92417  0.40642  0.57678  1.0000
  S   S153      1.0  0.82701  0.27535  0.63620  1.0000
  H   H1175     1.0  0.56437  0.19621  0.51319  1.0000
  C   C677      1.0  0.72334  0.22678  0.34455  1.0000
  C   C678      1.0  0.99916  0.43854  0.49801  1.0000
  Fe  Fe78      1.0  0.59714  0.04568  0.55187  1.0000
  H   H1176     1.0  0.95926  0.33297  0.32705  1.0000
  H   H1177     1.0  0.69115  0.31052  0.43529  1.0000
  H   H1178     1.0  0.94625  0.39507  0.49895  1.0000
  H   H1179     1.0  0.64723  0.20420  0.52645  1.0000
  C   C679      1.0  0.63976  0.16580  0.55580  1.0000
  H   H1180     1.0  0.62084  0.13892  0.56150  1.0000
  H   H1181     1.0  0.92411  0.43414  0.36244  1.0000
  C   C680      1.0  0.74541  0.34432  0.34621  1.0000
  C   C681      1.0  0.55632  0.26196  0.37580  1.0000
  C   C682      1.0  0.57245  0.28173  0.39841  1.0000
  C   C683      1.0  0.75790  0.17938  0.62921  1.0000
  H   H1182     1.0  0.89312  0.33880  0.56659  1.0000
  H   H1183     1.0  0.54448  0.49294  0.54276  1.0000
  C   C684      1.0  0.92081  0.43723  0.34111  1.0000
  H   H1184     1.0  0.53529  0.35123  0.42260  1.0000
  S   S154      1.0  0.55761  0.39428  0.48384  1.0000
  C   C685      1.0  0.01548  0.37271  0.40845  1.0000
  H   H1185     1.0  0.58625  0.17072  0.57501  1.0000
  C   C686      1.0  0.60141  0.40528  0.38872  1.0000
  C   C687      1.0  0.67446  0.16738  0.55109  1.0000
  H   H1186     1.0  0.63238  0.33829  0.62918  1.0000
  H   H1187     1.0  0.89967  0.38344  0.33187  1.0000
  H   H1188     1.0  0.00349  0.39276  0.49810  1.0000
  H   H1189     1.0  0.54071  0.33385  0.64144  1.0000
  H   H1190     1.0  0.78091  0.20441  0.62817  1.0000
  C   C688      1.0  0.91923  0.34720  0.57503  1.0000
  C   C689      1.0  0.55880  0.27867  0.59776  1.0000
  H   H1191     1.0  0.92354  0.30813  0.37853  1.0000
  H   H1192     1.0  0.55968  0.36243  0.36903  1.0000
  H   H1193     1.0  0.94216  0.43460  0.57426  1.0000
  N   N38       1.0  0.59158  0.17297  0.53252  1.0000
  H   H1194     1.0  0.62872  0.16150  0.51418  1.0000
  H   H1195     1.0  0.58238  0.22851  0.59686  1.0000
  H   H1196     1.0  0.53849  0.33006  0.33404  1.0000
  H   H1197     1.0  0.62671  0.26297  0.59567  1.0000
  H   H1198     1.0  0.88226  0.29241  0.52426  1.0000
  C   C690      1.0  0.70889  0.31800  0.33563  1.0000
  H   H1199     1.0  0.58903  0.21912  0.32118  1.0000
  H   H1200     1.0  0.69616  0.33325  0.32984  1.0000
  H   H1201     1.0  0.96617  0.39672  0.58219  1.0000
  H   H1202     1.0  0.61352  0.22662  0.46161  1.0000
  C   C691      1.0  0.94264  0.38630  0.56967  1.0000
  H   H1203     1.0  0.95024  0.39150  0.54869  1.0000
  H   H1204     1.0  0.62451  0.43071  0.38427  1.0000
  H   H1205     1.0  0.52469  0.42809  0.59716  1.0000
  H   H1206     1.0  0.93583  0.34042  0.48354  1.0000
  H   H1207     1.0  0.56734  0.21038  0.46324  1.0000
  H   H1208     1.0  0.63234  0.11592  0.63713  1.0000
  H   H1209     1.0  0.89373  0.29392  0.61379  1.0000
  H   H1210     1.0  0.61705  0.22040  0.60625  1.0000
  H   H1211     1.0  0.96867  0.30860  0.58139  1.0000
  H   H1212     1.0  0.89004  0.31372  0.47811  1.0000
  H   H1213     1.0  0.53017  0.44648  0.35120  1.0000
  H   H1214     1.0  0.58433  0.19091  0.44102  1.0000
  H   H1215     1.0  0.96821  0.41634  0.62935  1.0000
  C   C692      1.0  0.81878  0.29949  0.31534  1.0000
  C   C693      1.0  0.64496  0.25121  0.31686  1.0000
  H   H1216     1.0  0.91872  0.36044  0.64304  1.0000
  C   C694      1.0  0.52418  0.44217  0.57921  1.0000
  N   N39       1.0  0.96002  0.38018  0.31542  1.0000
  H   H1217     1.0  0.52791  0.43423  0.53655  1.0000
  H   H1218     1.0  0.62242  0.43800  0.31724  1.0000
  H   H1219     1.0  0.01187  0.46525  0.49009  1.0000
  C   C695      1.0  0.00667  0.40532  0.64503  1.0000
  H   H1220     1.0  0.65252  0.16284  0.63804  1.0000
  H   H1221     1.0  0.54473  0.14893  0.89278  1.0000
  Fe  Fe79      1.0  0.81583  0.32356  0.69642  1.0000
  S   S155      1.0  0.82162  0.27669  0.70087  1.0000
  S   S156      1.0  0.80944  0.35060  0.73217  1.0000
  Fe  Fe80      1.0  0.86324  0.30144  0.67009  1.0000
  S   S157      1.0  0.91466  0.30290  0.67258  1.0000
  Fe  Fe81      1.0  0.78497  0.25645  0.66656  1.0000
  S   S158      1.0  0.73617  0.20521  0.66976  1.0000
  S   S159      1.0  0.86020  0.35020  0.66808  1.0000
  S   S160      1.0  0.77692  0.30225  0.66340  1.0000
  H   H1222     1.0  0.55110  0.01942  0.74609  1.0000
  C   C696      1.0  0.55674  0.02602  0.70384  1.0000
  H   H1223     1.0  0.63205  0.05418  0.67021  1.0000
  C   C697      1.0  0.77730  0.38427  0.96628  1.0000
  H   H1224     1.0  0.71697  0.09224  0.81971  1.0000
  C   C698      1.0  0.57343  0.36317  0.89643  1.0000
  H   H1225     1.0  0.80627  0.23496  0.76285  1.0000
  S   S161      1.0  0.60229  0.06584  0.83786  1.0000
  Fe  Fe82      1.0  0.89192  0.38417  0.90108  1.0000
  S   S162      1.0  0.86494  0.32628  0.90411  1.0000
  Fe  Fe83      1.0  0.82821  0.38715  0.91684  1.0000
  S   S163      1.0  0.79619  0.32973  0.92168  1.0000
  S   S164      1.0  0.80365  0.42029  0.92075  1.0000
  Fe  Fe84      1.0  0.84336  0.33446  0.94204  1.0000
  Fe  Fe85      1.0  0.82069  0.32741  0.88335  1.0000
  S   S165      1.0  0.79040  0.29137  0.84932  1.0000
  S   S166      1.0  0.87344  0.39234  0.94015  1.0000
  S   S167      1.0  0.84955  0.38471  0.87761  1.0000
  C   C699      1.0  0.77266  0.40256  0.94580  1.0000
  C   C700      1.0  0.74344  0.40673  0.94552  1.0000
  H   H1226     1.0  0.55229  0.16891  0.70004  1.0000
  H   H1227     1.0  0.73973  0.42073  0.92958  1.0000
  H   H1228     1.0  0.58184  0.21854  0.65101  1.0000
  H   H1229     1.0  0.71137  0.24183  0.75278  1.0000
  H   H1230     1.0  0.65319  0.05505  0.71582  1.0000
  C   C701      1.0  0.96287  0.37099  0.90563  1.0000
  C   C702      1.0  0.98523  0.35748  0.90876  1.0000
  H   H1231     1.0  0.93657  0.35645  0.91255  1.0000
  H   H1232     1.0  0.97588  0.33236  0.91777  1.0000
  H   H1233     1.0  0.66020  0.25495  0.96233  1.0000
  H   H1234     1.0  0.72651  0.07067  0.69581  1.0000
  H   H1235     1.0  0.62099  0.32037  0.91089  1.0000
  C   C703      1.0  0.59345  0.22840  0.67073  1.0000
  C   C704      1.0  0.71889  0.39261  0.96585  1.0000
  C   C705      1.0  0.94460  0.36616  0.64779  1.0000
  C   C706      1.0  0.56879  0.02677  0.72967  1.0000
  S   S168      1.0  0.52513  0.24299  0.78299  1.0000
  H   H1236     1.0  0.59125  0.36704  0.66917  1.0000
  C   C707      1.0  0.52403  0.13400  0.90738  1.0000
  H   H1237     1.0  0.98853  0.33091  0.67724  1.0000
  C   C708      1.0  0.91563  0.51046  0.89667  1.0000
  H   H1238     1.0  0.60436  0.15033  0.91931  1.0000
  C   C709      1.0  0.55477  0.46073  0.80105  1.0000
  C   C710      1.0  0.59753  0.13469  0.64796  1.0000
  H   H1239     1.0  0.53871  0.25722  0.66263  1.0000
  C   C711      1.0  0.97459  0.40303  0.89337  1.0000
  C   C712      1.0  0.80589  0.33380  0.76447  1.0000
  C   C713      1.0  0.79333  0.29850  0.76904  1.0000
  C   C714      1.0  0.78862  0.28576  0.79508  1.0000
  C   C715      1.0  0.79704  0.30825  0.81677  1.0000
  C   C716      1.0  0.80934  0.34344  0.81212  1.0000
  C   C717      1.0  0.81353  0.35606  0.78616  1.0000
  H   H1240     1.0  0.78680  0.28106  0.75248  1.0000
  H   H1241     1.0  0.77867  0.25847  0.79850  1.0000
  H   H1242     1.0  0.81514  0.36096  0.82848  1.0000
  H   H1243     1.0  0.82305  0.38332  0.78293  1.0000
  H   H1244     1.0  0.52581  0.07267  0.89920  1.0000
  N   N40       1.0  0.55581  0.10622  0.93147  1.0000
  H   H1245     1.0  0.63468  0.13173  0.87489  1.0000
  H   H1246     1.0  0.68380  0.13481  0.66459  1.0000
  C   C718      1.0  0.56977  0.37291  0.66998  1.0000
  H   H1247     1.0  0.87411  0.49612  0.85181  1.0000
  H   H1248     1.0  0.54188  0.05385  0.92125  1.0000
  C   C719      1.0  0.59702  0.13381  0.97157  1.0000
  S   S169      1.0  0.94665  0.41965  0.88805  1.0000
  C   C720      1.0  0.80040  0.41200  0.65227  1.0000
  H   H1249     1.0  0.91461  0.49870  0.84210  1.0000
  C   C721      1.0  0.62626  0.04698  0.71250  1.0000
  N   N41       1.0  0.57757  0.13851  0.69528  1.0000
  C   C722      1.0  0.57084  0.16705  0.68647  1.0000
  H   H1250     1.0  0.69642  0.39599  0.96572  1.0000
  C   C723      1.0  0.59191  0.14702  0.72301  1.0000
  C   C724      1.0  0.60386  0.13594  0.67807  1.0000
  C   C725      1.0  0.60380  0.03786  0.73419  1.0000
  C   C726      1.0  0.60304  0.20366  0.68426  1.0000
  C   C727      1.0  0.59850  0.11947  0.73657  1.0000
  C   C728      1.0  0.97654  0.49915  0.94403  1.0000
  C   C729      1.0  0.53915  0.37582  0.80917  1.0000
  H   H1251     1.0  0.73899  0.11012  0.77461  1.0000
  H   H1252     1.0  0.59293  0.50342  0.77753  1.0000
  C   C730      1.0  0.60758  0.12802  0.76572  1.0000
  Fe  Fe86      1.0  0.53555  0.21829  0.74827  1.0000
  H   H1253     1.0  0.53221  0.34314  0.73632  1.0000
  C   C731      1.0  0.53978  0.12915  0.93332  1.0000
  C   C732      1.0  0.01957  0.37636  0.90025  1.0000
  H   H1254     1.0  0.57415  0.15143  0.73587  1.0000
  H   H1255     1.0  0.61705  0.17158  0.72346  1.0000
  H   H1256     1.0  0.63037  0.15777  0.68226  1.0000
  H   H1257     1.0  0.60538  0.11232  0.68301  1.0000
  H   H1258     1.0  0.55192  0.41420  0.84009  1.0000
  H   H1259     1.0  0.54400  0.40196  0.72532  1.0000
  H   H1260     1.0  0.61337  0.21434  0.70410  1.0000
  H   H1261     1.0  0.62395  0.20348  0.67252  1.0000
  H   H1262     1.0  0.62032  0.11835  0.72688  1.0000
  H   H1263     1.0  0.57534  0.09333  0.73574  1.0000
  H   H1264     1.0  0.68270  0.08758  0.79825  1.0000
  C   C733      1.0  0.57944  0.03618  0.68222  1.0000
  C   C734      1.0  0.94779  0.48952  0.92293  1.0000
  C   C735      1.0  0.88960  0.48276  0.85244  1.0000
  H   H1265     1.0  0.72056  0.24418  0.71785  1.0000
  C   C736      1.0  0.56301  0.36332  0.82034  1.0000
  C   C737      1.0  0.98407  0.34948  0.66669  1.0000
  S   S170      1.0  0.56384  0.03839  0.65047  1.0000
  H   H1266     1.0  0.78490  0.20441  0.78903  1.0000
  H   H1267     1.0  0.84882  0.23477  0.79333  1.0000
  C   C738      1.0  0.56685  0.48038  0.77501  1.0000
  H   H1268     1.0  0.58506  0.12605  0.77664  1.0000
  H   H1269     1.0  0.61439  0.10926  0.77447  1.0000
  H   H1270     1.0  0.62973  0.15458  0.76826  1.0000
  H   H1271     1.0  0.57280  0.08036  0.95899  1.0000
  H   H1272     1.0  0.64801  0.04074  0.95373  1.0000
  H   H1273     1.0  0.70057  0.09003  0.68735  1.0000
  H   H1274     1.0  0.56836  0.46357  0.75946  1.0000
  H   H1275     1.0  0.99655  0.40935  0.80930  1.0000
  H   H1276     1.0  0.53098  0.10089  0.71560  1.0000
  C   C739      1.0  0.97261  0.35413  0.80895  1.0000
  H   H1277     1.0  0.70297  0.29173  0.67308  1.0000
  H   H1278     1.0  0.61696  0.25391  0.66788  1.0000
  Fe  Fe87      1.0  0.57686  0.28525  0.71824  1.0000
  H   H1279     1.0  0.54376  0.37758  0.92146  1.0000
  C   C740      1.0  0.94318  0.34784  0.82774  1.0000
  C   C741      1.0  0.54403  0.10422  0.69621  1.0000
  C   C742      1.0  0.72224  0.14935  0.76995  1.0000
  H   H1280     1.0  0.52236  0.17949  0.92142  1.0000
  H   H1281     1.0  0.80497  0.43893  0.65233  1.0000
  H   H1282     1.0  0.62096  0.14322  0.95972  1.0000
  C   C743      1.0  0.68798  0.30104  0.68462  1.0000
  C   C744      1.0  0.53363  0.16242  0.79581  1.0000
  S   S171      1.0  0.61532  0.02373  0.90272  1.0000
  H   H1283     1.0  0.87011  0.45913  0.88984  1.0000
  H   H1284     1.0  0.52976  0.01812  0.70069  1.0000
  H   H1285     1.0  0.87933  0.45941  0.93241  1.0000
  H   H1286     1.0  0.96301  0.35258  0.78850  1.0000
  H   H1287     1.0  0.97834  0.33278  0.81185  1.0000
  C   C745      1.0  0.73251  0.17290  0.64809  1.0000
  H   H1288     1.0  0.55351  0.39428  0.79308  1.0000
  H   H1289     1.0  0.70415  0.13780  0.71745  1.0000
  C   C746      1.0  0.56627  0.10145  0.95880  1.0000
  C   C747      1.0  0.61710  0.31588  0.86850  1.0000
  H   H1290     1.0  0.87501  0.45766  0.84185  1.0000
  C   C748      1.0  0.73316  0.11198  0.72226  1.0000
  C   C749      1.0  0.72623  0.09547  0.69485  1.0000
  H   H1291     1.0  0.01042  0.37274  0.76292  1.0000
  H   H1292     1.0  0.95198  0.33609  0.96104  1.0000
  H   H1293     1.0  0.67572  0.31108  0.67070  1.0000
  H   H1294     1.0  0.93605  0.36840  0.82559  1.0000
  H   H1295     1.0  0.91998  0.32247  0.82327  1.0000
  H   H1296     1.0  0.56983  0.34281  0.88208  1.0000
  H   H1297     1.0  0.55762  0.16108  0.66709  1.0000
  N   N42       1.0  0.68247  0.25958  0.88090  1.0000
  C   C750      1.0  0.71177  0.29490  0.87347  1.0000
  C   C751      1.0  0.69597  0.23438  0.88123  1.0000
  C   C752      1.0  0.65559  0.24804  0.85923  1.0000
  C   C753      1.0  0.66567  0.25966  0.90684  1.0000
  C   C754      1.0  0.68914  0.28586  0.92833  1.0000
  C   C755      1.0  0.70135  0.32283  0.86780  1.0000
  C   C756      1.0  0.62405  0.21068  0.86160  1.0000
  C   C757      1.0  0.72310  0.24007  0.90261  1.0000
  C   C758      1.0  0.73861  0.21653  0.89821  1.0000
  C   C759      1.0  0.66898  0.28101  0.95385  1.0000
  C   C760      1.0  0.73293  0.35918  0.86811  1.0000
  C   C761      1.0  0.62547  0.18563  0.84156  1.0000
  H   H1298     1.0  0.72517  0.29309  0.85547  1.0000
  H   H1299     1.0  0.73219  0.30519  0.88883  1.0000
  H   H1300     1.0  0.67468  0.20751  0.88440  1.0000
  H   H1301     1.0  0.70742  0.23444  0.86163  1.0000
  H   H1302     1.0  0.66796  0.25107  0.83958  1.0000
  H   H1303     1.0  0.64423  0.26538  0.85841  1.0000
  H   H1304     1.0  0.64413  0.26523  0.90356  1.0000
  H   H1305     1.0  0.65313  0.23339  0.91583  1.0000
  H   H1306     1.0  0.69885  0.31297  0.92199  1.0000
  H   H1307     1.0  0.71200  0.28318  0.93294  1.0000
  H   H1308     1.0  0.68910  0.31858  0.84805  1.0000
  H   H1309     1.0  0.68244  0.32193  0.88242  1.0000
  H   H1310     1.0  0.59990  0.21153  0.85759  1.0000
  H   H1311     1.0  0.62083  0.19978  0.88170  1.0000
  H   H1312     1.0  0.74485  0.26684  0.90232  1.0000
  H   H1313     1.0  0.71086  0.23405  0.92239  1.0000
  H   H1314     1.0  0.71828  0.18886  0.89873  1.0000
  H   H1315     1.0  0.75222  0.22227  0.87894  1.0000
  H   H1316     1.0  0.75783  0.22119  0.91397  1.0000
  H   H1317     1.0  0.64615  0.28430  0.95012  1.0000
  C   C762      1.0  0.53856  0.35664  0.90715  1.0000
  H   H1318     1.0  0.56116  0.24339  0.83477  1.0000
  H   H1319     1.0  0.72496  0.37849  0.86295  1.0000
  H   H1320     1.0  0.74478  0.36547  0.88808  1.0000
  H   H1321     1.0  0.75259  0.36118  0.85364  1.0000
  H   H1322     1.0  0.62263  0.19317  0.82122  1.0000
  H   H1323     1.0  0.65009  0.18511  0.84294  1.0000
  H   H1324     1.0  0.60383  0.15904  0.84524  1.0000
  N   N43       1.0  0.71023  0.36704  0.74298  1.0000
  C   C763      1.0  0.74879  0.38828  0.73825  1.0000
  C   C764      1.0  0.69218  0.34436  0.71929  1.0000
  C   C765      1.0  0.69702  0.39228  0.74639  1.0000
  C   C766      1.0  0.70192  0.34557  0.76773  1.0000
  C   C767      1.0  0.71416  0.31855  0.76838  1.0000
  C   C768      1.0  0.77103  0.41141  0.76148  1.0000
  C   C769      1.0  0.65714  0.37645  0.74790  1.0000
  C   C770      1.0  0.71197  0.32937  0.70374  1.0000
  C   C771      1.0  0.70746  0.10668  0.80766  1.0000
  C   C772      1.0  0.71058  0.30341  0.79595  1.0000
  C   C773      1.0  0.80868  0.43462  0.75307  1.0000
  C   C774      1.0  0.64738  0.40491  0.74958  1.0000
  H   H1325     1.0  0.75387  0.40495  0.72053  1.0000
  H   H1326     1.0  0.76008  0.37174  0.73340  1.0000
  H   H1327     1.0  0.66646  0.32240  0.72518  1.0000
  H   H1328     1.0  0.68629  0.35904  0.70427  1.0000
  H   H1329     1.0  0.70643  0.41140  0.72992  1.0000
  H   H1330     1.0  0.70718  0.40745  0.76486  1.0000
  H   H1331     1.0  0.71230  0.36257  0.78539  1.0000
  H   H1332     1.0  0.67345  0.33056  0.77092  1.0000
  H   H1333     1.0  0.74160  0.32997  0.76259  1.0000
  H   H1334     1.0  0.69786  0.29674  0.75494  1.0000
  H   H1335     1.0  0.76171  0.42877  0.76882  1.0000
  H   H1336     1.0  0.77083  0.39501  0.77807  1.0000
  H   H1337     1.0  0.64668  0.36011  0.76573  1.0000
  H   H1338     1.0  0.64404  0.36051  0.73027  1.0000
  H   H1339     1.0  0.73304  0.35026  0.69200  1.0000
  H   H1340     1.0  0.72394  0.31820  0.71668  1.0000
  H   H1341     1.0  0.52418  0.50921  0.64790  1.0000
  H   H1342     1.0  0.01830  0.41555  0.76613  1.0000
  C   C775      1.0  0.62086  0.03231  0.95666  1.0000
  H   H1343     1.0  0.72830  0.32385  0.80987  1.0000
  H   H1344     1.0  0.68344  0.29208  0.80294  1.0000
  H   H1345     1.0  0.71775  0.28279  0.79554  1.0000
  H   H1346     1.0  0.81994  0.41892  0.74552  1.0000
  H   H1347     1.0  0.81045  0.45291  0.73744  1.0000
  H   H1348     1.0  0.82433  0.44983  0.77026  1.0000
  H   H1349     1.0  0.65615  0.42142  0.73167  1.0000
  H   H1350     1.0  0.65916  0.42126  0.76733  1.0000
  S   S172      1.0  0.59265  0.25618  0.74631  1.0000
  H   H1351     1.0  0.70261  0.12368  0.82097  1.0000
  C   C776      1.0  0.56435  0.24814  0.87725  1.0000
  C   C777      1.0  0.61423  0.04620  0.68663  1.0000
  H   H1352     1.0  0.66756  0.27881  0.69575  1.0000
  H   H1353     1.0  0.01808  0.44662  0.87517  1.0000
  C   C778      1.0  0.74038  0.19997  0.74117  1.0000
  C   C779      1.0  0.60764  0.10390  0.91039  1.0000
  H   H1354     1.0  0.69494  0.13155  0.76373  1.0000
  H   H1355     1.0  0.61883  0.39312  0.75102  1.0000
  H   H1356     1.0  0.91031  0.46172  0.88033  1.0000
  C   C780      1.0  0.89381  0.48619  0.94027  1.0000
  C   C781      1.0  0.52802  0.39301  0.83092  1.0000
  H   H1357     1.0  0.75740  0.21534  0.72452  1.0000
  C   C782      1.0  0.58114  0.26961  0.89898  1.0000
  C   C783      1.0  0.89585  0.47607  0.88092  1.0000
  C   C784      1.0  0.00483  0.39013  0.81405  1.0000
  S   S173      1.0  0.62080  0.04164  0.76648  1.0000
  Fe  Fe88      1.0  0.58114  0.28299  0.77929  1.0000
  H   H1358     1.0  0.74934  0.21741  0.75860  1.0000
  H   H1359     1.0  0.96171  0.49497  0.90370  1.0000
  H   H1360     1.0  0.59018  0.36351  0.91284  1.0000
  C   C785      1.0  0.78210  0.18079  0.75000  1.0000
  H   H1361     1.0  0.65796  0.14986  0.90548  1.0000
  H   H1362     1.0  0.74679  0.16132  0.70443  1.0000
  H   H1363     1.0  0.68519  0.17748  0.75110  1.0000
  H   H1364     1.0  0.57476  0.23190  0.68304  1.0000
  H   H1365     1.0  0.69335  0.17993  0.71627  1.0000
  H   H1366     1.0  0.01415  0.34701  0.96136  1.0000
  H   H1367     1.0  0.85269  0.21921  0.76139  1.0000
  H   H1368     1.0  0.58649  0.38510  0.82936  1.0000
  C   C786      1.0  0.83571  0.21324  0.77893  1.0000
  H   H1369     1.0  0.75876  0.11614  0.72861  1.0000
  N   N44       1.0  0.74399  0.16838  0.74625  1.0000
  H   H1370     1.0  0.55496  0.47904  0.81601  1.0000
  Fe  Fe89      1.0  0.58579  0.02016  0.86491  1.0000
  S   S174      1.0  0.61579  0.30967  0.81456  1.0000
  C   C787      1.0  0.70330  0.19339  0.73536  1.0000
  C   C788      1.0  0.64077  0.12556  0.89471  1.0000
  H   H1371     1.0  0.75881  0.14554  0.79722  1.0000
  S   S175      1.0  0.53238  0.01681  0.80241  1.0000
  H   H1372     1.0  0.61528  0.09813  0.92971  1.0000
  C   C789      1.0  0.73434  0.12807  0.78673  1.0000
  H   H1373     1.0  0.97159  0.44777  0.94584  1.0000
  C   C790      1.0  0.73164  0.14602  0.72181  1.0000
  C   C791      1.0  0.95006  0.34214  0.66165  1.0000
  H   H1374     1.0  0.79626  0.19130  0.73107  1.0000
  S   S176      1.0  0.53541  0.09403  0.84705  1.0000
  S   S177      1.0  0.60661  0.31219  0.68093  1.0000
  C   C792      1.0  0.70304  0.14016  0.64956  1.0000
  H   H1375     1.0  0.83199  0.18905  0.78830  1.0000
  H   H1376     1.0  0.78661  0.15908  0.75499  1.0000
  H   H1377     1.0  0.74650  0.11287  0.68071  1.0000
  H   H1378     1.0  0.54927  0.34281  0.83529  1.0000
  C   C793      1.0  0.53747  0.14710  0.81875  1.0000
  S   S178      1.0  0.57033  0.25229  0.93130  1.0000
  H   H1379     1.0  0.52696  0.44706  0.85127  1.0000
  C   C794      1.0  0.57379  0.26049  0.85128  1.0000
  H   H1380     1.0  0.57402  0.45301  0.80687  1.0000
  H   H1381     1.0  0.57820  0.12490  0.89302  1.0000
  C   C795      1.0  0.80089  0.20959  0.77104  1.0000
  N   N45       1.0  0.92631  0.50741  0.92441  1.0000
  C   C796      1.0  0.70297  0.22761  0.73376  1.0000
  H   H1382     1.0  0.63799  0.34202  0.86527  1.0000
  H   H1383     1.0  0.53055  0.32017  0.67545  1.0000
  H   H1384     1.0  0.59217  0.07912  0.89962  1.0000
  H   H1385     1.0  0.67641  0.22249  0.72925  1.0000
  H   H1386     1.0  0.56759  0.38011  0.69056  1.0000
  H   H1387     1.0  0.54940  0.08241  0.69475  1.0000
  C   C797      1.0  0.60055  0.29433  0.84678  1.0000
  C   C798      1.0  0.60734  0.30369  0.89445  1.0000
  C   C799      1.0  0.59845  0.02195  0.93481  1.0000
  C   C800      1.0  0.58661  0.12304  0.91330  1.0000
  H   H1388     1.0  0.95095  0.34741  0.84851  1.0000
  Fe  Fe90      1.0  0.58761  0.02879  0.80362  1.0000
  H   H1389     1.0  0.72073  0.16784  0.78401  1.0000
  H   H1390     1.0  0.65462  0.11070  0.89217  1.0000
  S   S179      1.0  0.57131  0.31606  0.75114  1.0000
  H   H1391     1.0  0.71286  0.09307  0.73566  1.0000
  H   H1392     1.0  0.68573  0.30085  0.96852  1.0000
  H   H1393     1.0  0.93063  0.46093  0.92331  1.0000
  H   H1394     1.0  0.58686  0.38869  0.88641  1.0000
  H   H1395     1.0  0.52605  0.10380  0.65527  1.0000
  Fe  Fe91      1.0  0.58313  0.28759  0.96714  1.0000
  H   H1396     1.0  0.57640  0.39524  0.65675  1.0000
  S   S180      1.0  0.61852  0.34470  0.96355  1.0000
  C   C801      1.0  0.00894  0.42190  0.88481  1.0000
  H   H1397     1.0  0.87547  0.49623  0.93788  1.0000
  H   H1398     1.0  0.54758  0.16236  0.83648  1.0000
  H   H1399     1.0  0.01022  0.39303  0.83557  1.0000
  C   C802      1.0  0.89875  0.48242  0.97003  1.0000
  Fe  Fe92      1.0  0.54621  0.05078  0.83827  1.0000
  H   H1400     1.0  0.79958  0.38060  0.96648  1.0000
  H   H1401     1.0  0.59102  0.15511  0.97365  1.0000
  H   H1402     1.0  0.54427  0.22166  0.88044  1.0000
  H   H1403     1.0  0.57138  0.35216  0.80425  1.0000
  C   C803      1.0  0.99193  0.47512  0.94252  1.0000
  H   H1404     1.0  0.82510  0.41278  0.65738  1.0000
  H   H1405     1.0  0.55940  0.15562  0.93987  1.0000
  H   H1406     1.0  0.84846  0.43647  0.97579  1.0000
  H   H1407     1.0  0.00385  0.47713  0.92288  1.0000
  H   H1408     1.0  0.54871  0.48931  0.76843  1.0000
  H   H1409     1.0  0.91188  0.46703  0.97288  1.0000
  H   H1410     1.0  0.78101  0.39661  0.66757  1.0000
  C   C804      1.0  0.52873  0.11223  0.81862  1.0000
  H   H1411     1.0  0.54122  0.18952  0.79586  1.0000
  C   C805      1.0  0.53599  0.34118  0.66125  1.0000
  H   H1412     1.0  0.52425  0.42371  0.96901  1.0000
  H   H1413     1.0  0.01229  0.48249  0.95781  1.0000
  H   H1414     1.0  0.54409  0.09259  0.97265  1.0000
  H   H1415     1.0  0.96690  0.49786  0.96430  1.0000
  H   H1416     1.0  0.52407  0.35997  0.89084  1.0000
  C   C806      1.0  0.58734  0.29911  0.64913  1.0000
  S   S181      1.0  0.56180  0.38733  0.97667  1.0000
  C   C807      1.0  0.01237  0.38107  0.65842  1.0000
  C   C808      1.0  0.53052  0.07107  0.92050  1.0000
  H   H1417     1.0  0.53603  0.31074  0.92457  1.0000
  S   S182      1.0  0.84288  0.30570  0.97926  1.0000
  H   H1418     1.0  0.73865  0.29874  0.97896  1.0000
  H   H1419     1.0  0.91376  0.50793  0.97983  1.0000
  H   H1420     1.0  0.63012  0.98193  0.28533  1.0000
  H   H1421     1.0  0.59814  0.90863  0.13588  1.0000
  S   S183      1.0  0.58777  0.91777  0.08136  1.0000
  H   H1422     1.0  0.62390  0.99577  0.25342  1.0000
  H   H1423     1.0  0.61548  0.90198  0.16616  1.0000
  H   H1424     1.0  0.60380  0.96655  0.00490  1.0000
  C   C809      1.0  0.53561  0.92350  0.99506  1.0000
  H   H1425     1.0  0.65579  0.93997  0.00624  1.0000
  H   H1426     1.0  0.55376  0.80429  0.19082  1.0000
  H   H1427     1.0  0.58086  0.90481  0.02292  1.0000
  H   H1428     1.0  0.57223  0.97393  0.28430  1.0000
  N   N46       1.0  0.54923  0.89929  0.98859  1.0000
  H   H1429     1.0  0.66491  0.98395  0.01064  1.0000
  H   H1430     1.0  0.55515  0.83931  0.00552  1.0000
  C   C810      1.0  0.55150  0.84231  0.15262  1.0000
  C   C811      1.0  0.54424  0.88726  0.08678  1.0000
  C   C812      1.0  0.59511  0.90658  0.15761  1.0000
  H   H1431     1.0  0.57524  0.84021  0.15524  1.0000
  H   H1432     1.0  0.56570  0.79313  0.13378  1.0000
  H   H1433     1.0  0.56582  0.93404  0.23299  1.0000
  C   C813      1.0  0.61239  0.94847  0.99777  1.0000
  H   H1434     1.0  0.54210  0.95659  0.02882  1.0000
  Fe  Fe93      1.0  0.59595  0.97172  0.08552  1.0000
  C   C814      1.0  0.52319  0.89631  0.10123  1.0000
  H   H1435     1.0  0.54752  0.76379  0.16131  1.0000
  C   C815      1.0  0.55912  0.87735  0.16509  1.0000
  C   C816      1.0  0.52341  0.86402  0.99920  1.0000
  C   C817      1.0  0.57666  0.95577  0.27209  1.0000
  H   H1436     1.0  0.54902  0.84481  0.13093  1.0000
  H   H1437     1.0  0.53234  0.82518  0.20407  1.0000
  H   H1438     1.0  0.52557  0.74701  0.10319  1.0000
  H   H1439     1.0  0.59882  0.93163  0.16524  1.0000
  H   H1440     1.0  0.63916  0.95159  0.03468  1.0000
  H   H1441     1.0  0.56253  0.97202  0.23642  1.0000
  H   H1442     1.0  0.55163  0.73391  0.12187  1.0000
  C   C818      1.0  0.55549  0.94692  0.24607  1.0000
  H   H1443     1.0  0.62185  0.95435  0.25700  1.0000
  H   H1444     1.0  0.55778  0.87619  0.18687  1.0000
  C   C819      1.0  0.53070  0.92848  0.02483  1.0000
  C   C820      1.0  0.54166  0.77125  0.14192  1.0000
  H   H1445     1.0  0.54636  0.84706  0.06457  1.0000
  C   C821      1.0  0.53009  0.85417  0.07572  1.0000
  C   C822      1.0  0.61548  0.97300  0.26651  1.0000
  C   C823      1.0  0.58389  0.91025  0.00138  1.0000
  S   S184      1.0  0.62265  0.00675  0.11980  1.0000
  C   C824      1.0  0.64499  0.95631  0.01330  1.0000
  H   H1446     1.0  0.55300  0.94981  0.98720  1.0000
  H   H1447     1.0  0.56974  0.93234  0.28383  1.0000
  S   S185      1.0  0.55181  0.98254  0.08475  1.0000
  C   C825      1.0  0.52851  0.80387  0.19062  1.0000
  C   C826      1.0  0.53201  0.83468  0.99395  1.0000
  H   H1448     1.0  0.59494  0.89430  0.99382  1.0000
  H   H1449     1.0  0.54011  0.88463  0.15778  1.0000
  C   C827      1.0  0.53066  0.74053  0.12325  1.0000
  H   H1450     1.0  0.54184  0.93380  0.19437  1.0000
  H   H1451     1.0  0.53908  0.76239  0.22672  1.0000
  H   H1452     1.0  0.54453  0.91973  0.03804  1.0000
  H   H1453     1.0  0.53428  0.92127  0.11071  1.0000
  S   S186      1.0  0.62652  0.01117  0.05473  1.0000
  H   H1454     1.0  0.52242  0.78676  0.24405  1.0000
  H   H1455     1.0  0.67037  0.99021  0.63830  1.0000
  H   H1456     1.0  0.58546  0.96074  0.37933  1.0000
  H   H1457     1.0  0.63849  0.98562  0.50249  1.0000
  C   C828      1.0  0.58933  0.95162  0.46228  1.0000
  H   H1458     1.0  0.56581  0.94037  0.47492  1.0000
  H   H1459     1.0  0.53768  0.82271  0.62424  1.0000
  C   C829      1.0  0.56948  0.90271  0.43153  1.0000
  H   H1460     1.0  0.56246  0.94502  0.63204  1.0000
  H   H1461     1.0  0.56425  0.94672  0.33253  1.0000
  C   C830      1.0  0.63991  0.98140  0.37268  1.0000
  H   H1462     1.0  0.53878  0.53268  0.51255  1.0000
  S   S187      1.0  0.55855  0.00355  0.57831  1.0000
  H   H1463     1.0  0.60099  0.94758  0.51548  1.0000
  C   C831      1.0  0.54894  0.94518  0.42708  1.0000
  H   H1464     1.0  0.55748  0.88876  0.45022  1.0000
  H   H1465     1.0  0.63294  0.95983  0.42290  1.0000
  C   C832      1.0  0.61518  0.94202  0.47529  1.0000
  C   C833      1.0  0.61067  0.96313  0.41714  1.0000
  H   H1466     1.0  0.59306  0.90030  0.42867  1.0000
  C   C834      1.0  0.55454  0.98233  0.42981  1.0000
  H   H1467     1.0  0.54024  0.93729  0.40643  1.0000
  H   H1468     1.0  0.64184  0.94858  0.51262  1.0000
  C   C835      1.0  0.62460  0.95688  0.50316  1.0000
  H   H1469     1.0  0.60387  0.91356  0.47693  1.0000
  H   H1470     1.0  0.63628  0.97630  0.35115  1.0000
  H   H1471     1.0  0.52791  0.51733  0.55959  1.0000
  C   C836      1.0  0.60648  0.95670  0.38713  1.0000
  H   H1472     1.0  0.61953  0.99104  0.42066  1.0000
  Fe  Fe94      1.0  0.59623  0.98391  0.57789  1.0000
  C   C837      1.0  0.54381  0.92060  0.33582  1.0000
  S   S188      1.0  0.58231  0.92816  0.57344  1.0000
  H   H1473     1.0  0.57361  0.99965  0.41500  1.0000
  H   H1474     1.0  0.57535  0.89806  0.32539  1.0000
  C   C838      1.0  0.53847  0.89692  0.57702  1.0000
  H   H1475     1.0  0.54767  0.85472  0.56872  1.0000
  H   H1476     1.0  0.56599  0.84982  0.39835  1.0000
  H   H1477     1.0  0.55431  0.88718  0.62851  1.0000
  N   N47       1.0  0.57949  0.94053  0.43389  1.0000
  H   H1478     1.0  0.60140  0.98024  0.46422  1.0000
  H   H1479     1.0  0.60121  0.93019  0.38245  1.0000
  H   H1480     1.0  0.66158  0.97753  0.37930  1.0000
  H   H1481     1.0  0.63963  0.95246  0.46401  1.0000
  H   H1482     1.0  0.53473  0.83111  0.42484  1.0000
  H   H1483     1.0  0.64692  0.00875  0.37632  1.0000
  C   C839      1.0  0.55001  0.89299  0.33168  1.0000
  S   S189      1.0  0.53221  0.82504  0.32967  1.0000
  H   H1484     1.0  0.61202  0.93887  0.63541  1.0000
  H   H1485     1.0  0.56365  0.99323  0.44975  1.0000
  C   C840      1.0  0.54089  0.84583  0.40607  1.0000
  Fe  Fe95      1.0  0.54519  0.00285  0.34084  1.0000
  C   C841      1.0  0.52848  0.86198  0.57377  1.0000
  C   C842      1.0  0.54239  0.88063  0.41007  1.0000
  H   H1486     1.0  0.54771  0.89367  0.39073  1.0000
  H   H1487     1.0  0.54821  0.80521  0.50469  1.0000
  H   H1488     1.0  0.52546  0.00953  0.42699  1.0000
  C   C843      1.0  0.52351  0.85884  0.33545  1.0000
  H   H1489     1.0  0.52643  0.92776  0.43965  1.0000
  H   H1490     1.0  0.52983  0.82192  0.52818  1.0000
  C   C844      1.0  0.54242  0.82190  0.64570  1.0000
  C   C845      1.0  0.52360  0.80215  0.51264  1.0000
  S   S190      1.0  0.62548  0.01365  0.61365  1.0000
  H   H1491     1.0  0.59225  0.86727  0.64616  1.0000
  H   H1492     1.0  0.58554  0.90686  0.70207  1.0000
  H   H1493     1.0  0.62011  0.91911  0.66296  1.0000
  C   C846      1.0  0.56556  0.94180  0.71023  1.0000
  H   H1494     1.0  0.57048  0.88773  0.95387  1.0000
  C   C847      1.0  0.55562  0.93923  0.65330  1.0000
  H   H1495     1.0  0.56710  0.96507  0.66282  1.0000
  C   C848      1.0  0.56554  0.91227  0.69366  1.0000
  C   C849      1.0  0.55991  0.92831  0.94180  1.0000
  H   H1496     1.0  0.52498  0.86895  0.65528  1.0000
  H   H1497     1.0  0.58742  0.96767  0.70549  1.0000
  H   H1498     1.0  0.93886  0.52850  0.88494  1.0000
  H   H1499     1.0  0.52954  0.80271  0.89605  1.0000
  S   S191      1.0  0.57760  0.98455  0.83056  1.0000
  H   H1500     1.0  0.57048  0.85636  0.67767  1.0000
  H   H1501     1.0  0.95922  0.59646  0.97106  1.0000
  H   H1502     1.0  0.58644  0.91758  0.91010  1.0000
  C   C850      1.0  0.60880  0.93550  0.65724  1.0000
  H   H1503     1.0  0.92257  0.57103  0.91759  1.0000
  C   C851      1.0  0.56409  0.92194  0.91274  1.0000
  C   C852      1.0  0.63275  0.97082  0.67056  1.0000
  H   H1504     1.0  0.97122  0.55846  0.92278  1.0000
  H   H1505     1.0  0.54556  0.00135  0.92257  1.0000
  C   C853      1.0  0.55117  0.01136  0.96452  1.0000
  H   H1506     1.0  0.59223  0.93747  0.74489  1.0000
  H   H1507     1.0  0.52414  0.00339  0.96742  1.0000
  H   H1508     1.0  0.58393  0.95149  0.94823  1.0000
  H   H1509     1.0  0.55029  0.87323  0.85188  1.0000
  C   C854      1.0  0.52469  0.69452  0.92390  1.0000
  H   H1510     1.0  0.52781  0.71300  0.90797  1.0000
  H   H1511     1.0  0.89815  0.52167  0.89676  1.0000
  H   H1512     1.0  0.53123  0.57908  0.86930  1.0000
  H   H1513     1.0  0.54558  0.91032  0.74579  1.0000
  H   H1514     1.0  0.54167  0.94305  0.70650  1.0000
  H   H1515     1.0  0.63428  0.96727  0.69208  1.0000
  C   C855      1.0  0.56721  0.93595  0.73976  1.0000
  N   N48       1.0  0.57080  0.91803  0.66423  1.0000
  H   H1516     1.0  0.54899  0.69330  0.92533  1.0000
  H   H1517     1.0  0.52389  0.61789  0.89976  1.0000
  C   C856      1.0  0.56703  0.85829  0.65619  1.0000
  H   H1518     1.0  0.56533  0.95639  0.75106  1.0000
  C   C857      1.0  0.55300  0.88335  0.65029  1.0000
  C   C858      1.0  0.95268  0.60028  0.95064  1.0000
  C   C859      1.0  0.55130  0.89603  0.95891  1.0000
  C   C860      1.0  0.94771  0.54364  0.93523  1.0000
  H   H1519     1.0  0.53869  0.93455  0.94299  1.0000
  H   H1520     1.0  0.55402  0.80505  0.64871  1.0000
  C   C861      1.0  0.52575  0.86796  0.84349  1.0000
  H   H1521     1.0  0.62013  0.95389  0.97685  1.0000
  H   H1522     1.0  0.54027  0.89926  0.90501  1.0000
  C   C862      1.0  0.92925  0.56541  0.93737  1.0000
  H   H1523     1.0  0.95765  0.54335  0.95522  1.0000
  H   H1524     1.0  0.62354  0.98949  0.66722  1.0000
  H   H1525     1.0  0.97696  0.61534  0.93921  1.0000
  H   H1526     1.0  0.54038  0.88859  0.69795  1.0000
  H   H1527     1.0  0.52610  0.87520  0.95100  1.0000
  H   H1528     1.0  0.56900  0.94498  0.90095  1.0000
  H   H1529     1.0  0.68122  0.97039  0.66500  1.0000
  H   H1530     1.0  0.53635  0.56962  0.90306  1.0000
  H   H1531     1.0  0.53730  0.83304  0.97283  1.0000
  H   H1532     1.0  0.53503  0.91958  0.84998  1.0000
  S   S192      1.0  0.53051  0.00743  0.86714  1.0000
  Fe  Fe96      1.0  0.52293  0.97471  0.83135  1.0000
  H   H1533     1.0  0.90528  0.55186  0.94929  1.0000
  H   H1534     1.0  0.99802  0.52596  0.94061  1.0000
  H   H1535     1.0  0.68597  0.01283  0.66910  1.0000
  H   H1536     1.0  0.93909  0.61553  0.95162  1.0000
  C   C863      1.0  0.66976  0.98692  0.66003  1.0000
  C   C864      1.0  0.56333  0.01055  0.93902  1.0000
