data_image0
_chemical_formula_structural       CFeS2FeS2FeSFeS4CH2CFeS2H4C6H5C5H5CH7C6H5CHC2HCH2FeHNH3C2H5C3HSHCHNC3H3C3HCH8CHC2H7CHCHCH4CNC2H6CHCH4C2H2CH2CH6CH4C2HNH3C3HCSHC3H9CH4CH4CHC3HCHCH3C2H4CH5FeSHFeSFeSFeS3FeHSHSCH4CH13C6H3C6H6C2H2FeH2CNCHCHC2H2CH2C2FeHC2HCHSCHCSH2CHCH3CFeH5CH2CH3CH2CH2CH8NCSHCHCHSHCH9CH8CHCHC2H2C2SCNC8SH6CH4CHSH2CHCH2SHCHCH3CH2C2H3CH2CH7CHCH2FeS2C2HFeSFeCS2NSH2SFeSCSCFeSCFeS2FeSFeS3FeS2FeS2FeSFeS3HSHC4H2C6H4C5H7C5H4SHFeC4H5C6H5C8H4NC6SC2H16CH3NC11H19SHCH3CH2C2H4C2H7C2H2C3H5CH4CHCHCNHNCH6CH2CHCH2CH2CH2FeHC2H3C2H6CFeH2SNC7H2C2H8SH5C6H8CH4CH3CH5C2HFeH2CHCH2CH3C4H3C2H2C2H3CH2CH3NHC2HCH6C2H4NH3CSHC2HSH2CH2CH3CH3CH3FeH2CH3CH2CH3NH2CH3CHCH7CHCHCH5CH2SH2FeS2FeS2Fe2S3HC2FeSHFeS2FeSFeS3HC7H4CH3SC6H4C6H4C2HCHSHNH7C6H4CH3NHC2HSHCH2C2H4C2H2C2HCH2C2HCH3NH3NHC2HCHC3HC2HCH4C2H2C2H10CH3CHNC6H2CH23CH3CH2CHC3H3C3H4CHCH4SHCH2CHCH2CHSH4C2SCHCH3NCH2CHCH2CSCH2C2H3CH4CH4CHCH4C3H4C3H7CH3CH2NHC2HSH2C3H2CHCHCH5C2FeCH2CFeCH3CH2C2HCFeS3CFeC7H3SCH4CHCH2CH2FeCH7CH4CH2NH2SCNSH2CFeHNHSH5SCH7SH8C2SHC2H2CH5CFeSFeS2FeCS2C3H2CH2C4HCH4CHC2H5CH4C2H3C3H3CH3C3SC2HCHCH4SH3CH4C2HNHCH6FeH2CH2CH7CH7SH2FeS2FeS2FeSFeS3HS2C2SCH2CHSC6H2C7H4C6H4C2HCH3C4H4CHCH4C2HCH2C3H2CH5CHNC9H20NH8CH4CH10CHCHCH4CHCH2CH4C2H3CHSHSNCH2C2H4FeH2CFeCH4C2HC2H4CH2CHNHCH2C2SFeSHFeS2FeSFeS3CSHC2HFeS2FeSFeCS2H2CHC6HCH3C6H4C2HCHCHC6H4C2HC2FeHCH6CH4CH4CSH6CH2CH2C2HNC6HCHCHCH21SHCNC9H2CH8NH2CH7CH3CH7SHFeHCH5CH2CHC2H3CH6NHCHC2HCH4CH4FeH3CH2CHCH3CSH3CHCHCH3SH4CHSH4C2HFeSFeSHFeSFeS3FeCSHCSC2H4SFeHC2SH8C2SC2H5C6HCH2C6H5CH2CH4CHC2H4FeH2CH3CSH2SNH6CHCH5C2SC2NC8HC3H16CSCHCH5CH9CH2CSH2C2HSH4FeC3H5SH3FeH2FeSHFeSCSFeS2FeS2FeCFeS3H3CHC6H4C6H5SH2CH2C8H5CHC2H4CH2SH2CH5C2HCH2CHNCHCH2CSCHCH2FeH5CH4CH4C2H2SHCH3CHNHC2H5SCHCH2SHCH5CH3CH4C2SHSH2C2H7SH5C2HC3H5C2HC2SFeSN2H3C4H2CH2C4H7CHCHC3H10CHSHFeH4CH9C3H2C2HCFeH3C2HCHCH3C2H5CHSHCH9C3H2C2H4C3HCFeC2FeS2CHFeCS3FeSNC3SC2HC3H4C2H2C3HC8H3CSH3CH2NHC2HC2HC3H7CH2CH3CH6CHCH5CSH5CH2CHNH2CH4C2H7CH4CHCSCH7CFeHCHCH2CHCHNHCH3FeH2C2H4CHSH3CHSFeS2FeSFeHS2H2FeS2FeS2Fe2S3FeS2FeS2FeSFeS3HFeSHFeHSFeH2S2H2C6H4C3HFeCH4C2H2C7H4C7H3C3H2C6H5C3HCH2C4H10CH2CSHNC11H25CH2C2NC3HC3H11C3H6SNC9H22CH3CHCH3CHCHCH5C4H5CHC2HCNH2CHFeC2HCH4SCHC2H6CHCHC2H6CH3C2H4CH3SH4C2H3CSH5CH3CH2NSH2C2H4C6HCNH3CH4CH3SH2CH3CNH3C6H6CHCH2C2H6CHC2H3SC2H6CSCH3C2H2CH5C2H2CFeH2CHCHCHC3H4SH3CSHFeSHSHFeS2FeHCFeCFeS3FeS2FeS2FeS2FeS2FeSFeS2FeS2FeS2FeSFeS3C5H5C6H4C5H2C6H4C7H4C2H2C2H4C6H5C4FeH3FeSCH4CH4CH3CH3C2SH2NFeH2CH2C2SH6CHCH4C3H10CH12CHCH3C2H2CH2CH4NH6FeH5CH6CH2SC2H3C2HCH2CHCH2CHCHCHCH3SH2NCHC3H4CNC5H12NCHC4H2C2H3C2H7CNH2CH5CH2NH4C3H3CSHNHCH7CH5CH2FeCH2C4NHCH3C2H6C5H2C2HCH3CHC2H4C2H11CH2CH2CHCHC3HC2H2CFeHCHSH3CNHSHCHCHCHCSH3CHCH2CFeS2FeS2FeCFeS3H2SHSFeSFeSHC3NCHC2H3CHFeHC6H4C3H3C7H3CHC2H5CH2CSH3SH3CHFeHCHCH8CH2CH9SH2CH2CSH3C2H5CH2FeH4C3H2CHCH2NHC6SCHFeCHCH2CH4NCH2CH2C2H2CHCH2FeH2C2H3CH5CHCHCH4CN2HCSH3CHCNH3CHSHFeS2FeS2FeSFeS3H2C7H2CHC6H5CHCHCH2C6HSH2C2HNC2HC3H3C2H4C2H2CH5C3H6CH5C2HCH4C2HC2H2CHNH4C2H2C3H4CH4NC3HCH2C2HC2H4C2H2C2H11CH2CH2C2H3CH2CH4SCH3CH2CHCH7CH2NH10FeH4SH8
_chemical_formula_sum              "C1296 Fe144 S288 H2304 N72"
_cell_length_a       72.9441
_cell_length_b       74.9647
_cell_length_c       32.3434
_cell_angle_alpha    89.3111
_cell_angle_beta     91.0167
_cell_angle_gamma    111.718

_space_group_name_H-M_alt    "P 1"
_space_group_IT_number       1

loop_
  _space_group_symop_operation_xyz
  'x, y, z'

loop_
  _atom_site_type_symbol
  _atom_site_label
  _atom_site_symmetry_multiplicity
  _atom_site_fract_x
  _atom_site_fract_y
  _atom_site_fract_z
  _atom_site_occupancy
  C   C1        1.0  0.28522  0.98432  0.52357  1.0000
  Fe  Fe1       1.0  0.28539  0.05072  0.26907  1.0000
  S   S1        1.0  0.26098  0.05452  0.23049  1.0000
  S   S2        1.0  0.29251  0.06151  0.33529  1.0000
  Fe  Fe2       1.0  0.30167  0.03538  0.19571  1.0000
  S   S3        1.0  0.27899  0.03875  0.15265  1.0000
  S   S4        1.0  0.32280  0.02095  0.17698  1.0000
  Fe  Fe3       1.0  0.28431  0.06716  0.18270  1.0000
  S   S5        1.0  0.28772  0.09238  0.13912  1.0000
  Fe  Fe4       1.0  0.25788  0.02585  0.20380  1.0000
  S   S6        1.0  0.23105  0.00097  0.18281  1.0000
  S   S7        1.0  0.30912  0.06492  0.22234  1.0000
  S   S8        1.0  0.28025  0.02101  0.24606  1.0000
  S   S9        1.0  0.29192  0.20292  0.06986  1.0000
  C   C2        1.0  0.33016  0.12305  0.20000  1.0000
  H   H1        1.0  0.43513  0.00349  0.39236  1.0000
  H   H2        1.0  0.33130  0.12791  0.31912  1.0000
  C   C3        1.0  0.39666  0.03308  0.12476  1.0000
  Fe  Fe5       1.0  0.27394  0.19460  0.12790  1.0000
  S   S10       1.0  0.26619  0.16674  0.16618  1.0000
  S   S11       1.0  0.24967  0.20379  0.10228  1.0000
  H   H3        1.0  0.22348  0.06132  0.18505  1.0000
  H   H4        1.0  0.34442  0.12256  0.38974  1.0000
  H   H5        1.0  0.38026  0.98448  0.05401  1.0000
  H   H6        1.0  0.30358  0.11888  0.49563  1.0000
  C   C4        1.0  0.28177  0.11300  0.14760  1.0000
  C   C5        1.0  0.28941  0.12892  0.12091  1.0000
  C   C6        1.0  0.28484  0.14548  0.12609  1.0000
  C   C7        1.0  0.27242  0.14625  0.15794  1.0000
  C   C8        1.0  0.26463  0.13022  0.18439  1.0000
  C   C9        1.0  0.26924  0.11367  0.17925  1.0000
  H   H7        1.0  0.29900  0.12850  0.09612  1.0000
  H   H8        1.0  0.29091  0.15765  0.10545  1.0000
  H   H9        1.0  0.25477  0.13056  0.20869  1.0000
  H   H10       1.0  0.26283  0.10133  0.19921  1.0000
  H   H11       1.0  0.27252  0.00237  0.37260  1.0000
  C   C10       1.0  0.37286  0.01146  0.43399  1.0000
  C   C11       1.0  0.31203  0.01592  0.09390  1.0000
  C   C12       1.0  0.32194  0.01110  0.12702  1.0000
  C   C13       1.0  0.33174  0.99840  0.12020  1.0000
  C   C14       1.0  0.32567  0.06683  0.50291  1.0000
  H   H12       1.0  0.30457  0.02577  0.09855  1.0000
  H   H13       1.0  0.29058  0.13769  0.34768  1.0000
  H   H14       1.0  0.32918  0.07574  0.47433  1.0000
  H   H15       1.0  0.31547  0.00607  0.36133  1.0000
  H   H16       1.0  0.31455  0.98973  0.46508  1.0000
  C   C15       1.0  0.38896  0.98313  0.11832  1.0000
  H   H17       1.0  0.23412  0.01604  0.40632  1.0000
  H   H18       1.0  0.30395  0.10230  0.22579  1.0000
  H   H19       1.0  0.27783  0.09367  0.35728  1.0000
  H   H20       1.0  0.31742  0.98366  0.20959  1.0000
  H   H21       1.0  0.30037  0.13228  0.23599  1.0000
  H   H22       1.0  0.43350  0.99675  0.44626  1.0000
  H   H23       1.0  0.32393  0.10004  0.39701  1.0000
  C   C16       1.0  0.25442  0.03577  0.44909  1.0000
  C   C17       1.0  0.27216  0.05153  0.45281  1.0000
  C   C18       1.0  0.28347  0.05936  0.41757  1.0000
  C   C19       1.0  0.27723  0.05150  0.37822  1.0000
  C   C20       1.0  0.25930  0.03592  0.37428  1.0000
  C   C21       1.0  0.24793  0.02814  0.40959  1.0000
  H   H24       1.0  0.27735  0.05742  0.48304  1.0000
  H   H25       1.0  0.29732  0.07134  0.42100  1.0000
  H   H26       1.0  0.25425  0.02975  0.34415  1.0000
  H   H27       1.0  0.39258  0.04288  0.10378  1.0000
  H   H28       1.0  0.34435  0.13421  0.21016  1.0000
  C   C22       1.0  0.41861  0.00536  0.05240  1.0000
  H   H29       1.0  0.33944  0.99458  0.14559  1.0000
  C   C23       1.0  0.24395  0.12285  0.46019  1.0000
  C   C24       1.0  0.23528  0.10433  0.48653  1.0000
  H   H30       1.0  0.23688  0.04132  0.15015  1.0000
  C   C25       1.0  0.28612  0.00552  0.35436  1.0000
  H   H31       1.0  0.19449  0.01937  0.19334  1.0000
  H   H32       1.0  0.24639  0.11309  0.10321  1.0000
  Fe  Fe6       1.0  0.26892  0.21409  0.04626  1.0000
  H   H33       1.0  0.41004  0.03527  0.18630  1.0000
  N   N1        1.0  0.30116  0.12367  0.30028  1.0000
  H   H34       1.0  0.24178  0.07723  0.35142  1.0000
  H   H35       1.0  0.26787  0.13451  0.28456  1.0000
  H   H36       1.0  0.42349  0.03881  0.09223  1.0000
  C   C26       1.0  0.20921  0.04425  0.06627  1.0000
  C   C27       1.0  0.23764  0.08703  0.06615  1.0000
  H   H37       1.0  0.36594  0.99676  0.42111  1.0000
  H   H38       1.0  0.41808  0.01908  0.12647  1.0000
  H   H39       1.0  0.34044  0.05023  0.44931  1.0000
  H   H40       1.0  0.29823  0.99049  0.39755  1.0000
  H   H41       1.0  0.27156  0.99794  0.13659  1.0000
  C   C28       1.0  0.23685  0.11915  0.41520  1.0000
  C   C29       1.0  0.33150  0.03865  0.47080  1.0000
  C   C30       1.0  0.32227  0.99596  0.04732  1.0000
  H   H42       1.0  0.24173  0.98396  0.40885  1.0000
  S   S12       1.0  0.24002  0.02539  0.49298  1.0000
  H   H43       1.0  0.23876  0.13397  0.47207  1.0000
  C   C31       1.0  0.31225  0.00842  0.05428  1.0000
  H   H44       1.0  0.32561  0.10838  0.25837  1.0000
  N   N2        1.0  0.22654  0.05233  0.09582  1.0000
  C   C32       1.0  0.23162  0.07341  0.10424  1.0000
  C   C33       1.0  0.22272  0.04105  0.13605  1.0000
  C   C34       1.0  0.24431  0.05035  0.07594  1.0000
  H   H45       1.0  0.23632  0.09211  0.46870  1.0000
  H   H46       1.0  0.37279  0.99833  0.08886  1.0000
  H   H47       1.0  0.29576  0.02216  0.42643  1.0000
  C   C35       1.0  0.24318  0.02947  0.06886  1.0000
  C   C36       1.0  0.21269  0.04800  0.17111  1.0000
  C   C37       1.0  0.20547  0.03300  0.20559  1.0000
  H   H48       1.0  0.31636  0.03496  0.39616  1.0000
  C   C38       1.0  0.28272  0.10597  0.29478  1.0000
  H   H49       1.0  0.33544  0.00268  0.41194  1.0000
  H   H50       1.0  0.32206  0.00573  0.50690  1.0000
  H   H51       1.0  0.33335  0.11163  0.18353  1.0000
  H   H52       1.0  0.21397  0.02556  0.13022  1.0000
  H   H53       1.0  0.33792  0.99027  0.27258  1.0000
  H   H54       1.0  0.24411  0.07855  0.12701  1.0000
  H   H55       1.0  0.24202  0.08597  0.29910  1.0000
  H   H56       1.0  0.40681  0.03778  0.03066  1.0000
  C   C39       1.0  0.22360  0.98820  0.26294  1.0000
  H   H57       1.0  0.20473  0.02841  0.06389  1.0000
  C   C40       1.0  0.31586  0.11941  0.32862  1.0000
  C   C41       1.0  0.40612  0.04452  0.16347  1.0000
  H   H58       1.0  0.37943  0.02180  0.40851  1.0000
  H   H59       1.0  0.42357  0.99775  0.07724  1.0000
  H   H60       1.0  0.24235  0.02176  0.09869  1.0000
  H   H61       1.0  0.27333  0.10815  0.26931  1.0000
  H   H62       1.0  0.19991  0.05130  0.15990  1.0000
  H   H63       1.0  0.21798  0.03001  0.21992  1.0000
  H   H64       1.0  0.34171  0.03800  0.49621  1.0000
  C   C42       1.0  0.35768  0.01705  0.45700  1.0000
  H   H65       1.0  0.21922  0.10137  0.48817  1.0000
  C   C43       1.0  0.33171  0.99069  0.08063  1.0000
  H   H66       1.0  0.22175  0.10564  0.08149  1.0000
  C   C44       1.0  0.29670  0.14051  0.31610  1.0000
  H   H67       1.0  0.22049  0.11420  0.41323  1.0000
  H   H68       1.0  0.19837  0.03839  0.23002  1.0000
  H   H69       1.0  0.27515  0.03813  0.06246  1.0000
  H   H70       1.0  0.25428  0.06953  0.31220  1.0000
  C   C45       1.0  0.19013  0.04759  0.07689  1.0000
  N   N3        1.0  0.32329  0.01981  0.44790  1.0000
  C   C46       1.0  0.30944  0.02129  0.41386  1.0000
  C   C47       1.0  0.39700  0.02233  0.03159  1.0000
  H   H71       1.0  0.28221  0.99141  0.45998  1.0000
  H   H72       1.0  0.29110  0.17542  0.31575  1.0000
  H   H73       1.0  0.31505  0.07088  0.52116  1.0000
  H   H74       1.0  0.28630  0.98332  0.18815  1.0000
  H   H75       1.0  0.25787  0.05786  0.09491  1.0000
  H   H76       1.0  0.27012  0.15754  0.34076  1.0000
  C   C48       1.0  0.31550  0.12367  0.37544  1.0000
  H   H77       1.0  0.21933  0.07597  0.11944  1.0000
  C   C49       1.0  0.27740  0.16262  0.31067  1.0000
  H   H78       1.0  0.18333  0.03913  0.10471  1.0000
  H   H79       1.0  0.30311  0.98432  0.25365  1.0000
  H   H80       1.0  0.23103  0.00302  0.27195  1.0000
  H   H81       1.0  0.24320  0.13263  0.39689  1.0000
  C   C50       1.0  0.17485  0.04073  0.04181  1.0000
  C   C51       1.0  0.32895  0.11588  0.40038  1.0000
  H   H82       1.0  0.35207  0.00679  0.48299  1.0000
  H   H83       1.0  0.38307  0.02119  0.13457  1.0000
  C   C52       1.0  0.31649  0.04551  0.49211  1.0000
  H   H84       1.0  0.34688  0.02793  0.40326  1.0000
  H   H85       1.0  0.32097  0.13944  0.38042  1.0000
  C   C53       1.0  0.27344  0.09784  0.49895  1.0000
  H   H86       1.0  0.26551  0.11027  0.34657  1.0000
  H   H87       1.0  0.32860  0.11923  0.43363  1.0000
  H   H88       1.0  0.39549  0.04991  0.17805  1.0000
  H   H89       1.0  0.32367  0.14310  0.26107  1.0000
  H   H90       1.0  0.30354  0.04365  0.47242  1.0000
  H   H91       1.0  0.41959  0.05704  0.15544  1.0000
  C   C54       1.0  0.31061  0.12939  0.25851  1.0000
  H   H92       1.0  0.25029  0.98343  0.10700  1.0000
  H   H93       1.0  0.32255  0.12957  0.17796  1.0000
  H   H94       1.0  0.27404  0.98198  0.09738  1.0000
  H   H95       1.0  0.29014  0.01993  0.33979  1.0000
  C   C55       1.0  0.28206  0.14669  0.28955  1.0000
  C   C56       1.0  0.30300  0.00473  0.38198  1.0000
  H   H96       1.0  0.31430  0.10410  0.32562  1.0000
  N   N4        1.0  0.40281  0.01216  0.06743  1.0000
  H   H97       1.0  0.28837  0.15247  0.25904  1.0000
  H   H98       1.0  0.28656  0.09366  0.28461  1.0000
  H   H99       1.0  0.31068  0.15330  0.31911  1.0000
  C   C57       1.0  0.41121  0.02572  0.10295  1.0000
  C   C58       1.0  0.25082  0.08189  0.32319  1.0000
  C   C59       1.0  0.31716  0.11433  0.23720  1.0000
  H   H100      1.0  0.26724  0.16698  0.29055  1.0000
  C   C60       1.0  0.26982  0.09884  0.33350  1.0000
  S   S13       1.0  0.28966  0.22312  0.15951  1.0000
  H   H101      1.0  0.17109  0.02519  0.03583  1.0000
  C   C61       1.0  0.29157  0.99832  0.48710  1.0000
  C   C62       1.0  0.31367  0.00324  0.47720  1.0000
  C   C63       1.0  0.34050  0.01684  0.42772  1.0000
  H   H102      1.0  0.30052  0.11730  0.38837  1.0000
  H   H103      1.0  0.30071  0.09479  0.48143  1.0000
  H   H104      1.0  0.28311  0.99480  0.32936  1.0000
  H   H105      1.0  0.27004  0.10023  0.46624  1.0000
  H   H106      1.0  0.38487  0.01163  0.45584  1.0000
  H   H107      1.0  0.37047  0.02537  0.05865  1.0000
  H   H108      1.0  0.36568  0.03159  0.46979  1.0000
  H   H109      1.0  0.28825  0.01110  0.49483  1.0000
  H   H110      1.0  0.19417  0.22851  0.48317  1.0000
  C   C64       1.0  0.23711  0.10676  0.07566  1.0000
  H   H111      1.0  0.96600  0.20460  0.26703  1.0000
  H   H112      1.0  0.25297  0.08919  0.05721  1.0000
  H   H113      1.0  0.24708  0.05759  0.04518  1.0000
  H   H114      1.0  0.26657  0.08231  0.50572  1.0000
  C   C65       1.0  0.46091  0.98597  0.36897  1.0000
  H   H115      1.0  0.26085  0.01439  0.04403  1.0000
  H   H116      1.0  0.24162  0.10810  0.40142  1.0000
  H   H117      1.0  0.16115  0.04288  0.05049  1.0000
  H   H118      1.0  0.26029  0.12857  0.46018  1.0000
  C   C66       1.0  0.43600  0.99246  0.41472  1.0000
  H   H119      1.0  0.39302  0.99225  0.14632  1.0000
  C   C67       1.0  0.38552  0.99456  0.08054  1.0000
  C   C68       1.0  0.26132  0.02934  0.04602  1.0000
  C   C69       1.0  0.22166  0.98323  0.22113  1.0000
  H   H120      1.0  0.23010  0.02114  0.04982  1.0000
  C   C70       1.0  0.29578  0.10343  0.50310  1.0000
  H   H121      1.0  0.19291  0.06297  0.08186  1.0000
  C   C71       1.0  0.45622  0.99077  0.41332  1.0000
  H   H122      1.0  0.45533  0.00302  0.04026  1.0000
  H   H123      1.0  0.44608  0.03051  0.06134  1.0000
  H   H124      1.0  0.25350  0.23102  0.23155  1.0000
  C   C72       1.0  0.26429  0.98375  0.12170  1.0000
  C   C73       1.0  0.43769  0.02107  0.03583  1.0000
  H   H125      1.0  0.24287  0.11663  0.04902  1.0000
  H   H126      1.0  0.21349  0.04971  0.03433  1.0000
  H   H127      1.0  0.22768  0.08124  0.03926  1.0000
  H   H128      1.0  0.27404  0.12504  0.51944  1.0000
  C   C74       1.0  0.37528  0.02114  0.02933  1.0000
  H   H129      1.0  0.33935  0.06992  0.52175  1.0000
  H   H130      1.0  0.31141  0.03733  0.52120  1.0000
  H   H131      1.0  0.30485  0.01253  0.02872  1.0000
  H   H132      1.0  0.25729  0.14584  0.52623  1.0000
  H   H133      1.0  0.41247  0.99475  0.02712  1.0000
  Fe  Fe7       1.0  0.25121  0.01315  0.64488  1.0000
  S   S14       1.0  0.27075  0.04126  0.67343  1.0000
  H   H134      1.0  0.09685  0.17413  0.80620  1.0000
  Fe  Fe8       1.0  0.25157  0.03237  0.55914  1.0000
  S   S15       1.0  0.27082  0.06162  0.58143  1.0000
  Fe  Fe9       1.0  0.28791  0.04625  0.61468  1.0000
  S   S16       1.0  0.32088  0.06115  0.61387  1.0000
  Fe  Fe10      1.0  0.25227  0.05484  0.63823  1.0000
  S   S17       1.0  0.24207  0.07739  0.66656  1.0000
  S   S18       1.0  0.27017  0.01749  0.58818  1.0000
  S   S19       1.0  0.23116  0.02622  0.61366  1.0000
  Fe  Fe11      1.0  0.28122  0.19253  0.67895  1.0000
  H   H135      1.0  0.07203  0.21850  0.81828  1.0000
  S   S20       1.0  0.28954  0.16809  0.65419  1.0000
  H   H136      1.0  0.29353  0.99100  0.55204  1.0000
  S   S21       1.0  0.26662  0.19042  0.73993  1.0000
  C   C75       1.0  0.24418  0.15240  0.57981  1.0000
  H   H137      1.0  0.18053  0.04902  0.01301  1.0000
  H   H138      1.0  0.26711  0.14116  0.57424  1.0000
  H   H139      1.0  0.05660  0.21917  0.88640  1.0000
  H   H140      1.0  0.33758  0.98864  0.87077  1.0000
  C   C76       1.0  0.30002  0.98499  0.69482  1.0000
  H   H141      1.0  0.31367  0.06009  0.70269  1.0000
  H   H142      1.0  0.29406  0.11471  0.82510  1.0000
  H   H143      1.0  0.29410  0.15545  0.92924  1.0000
  H   H144      1.0  0.22384  0.11794  0.54994  1.0000
  H   H145      1.0  0.43436  0.03008  0.01161  1.0000
  H   H146      1.0  0.24013  0.17107  0.86688  1.0000
  H   H147      1.0  0.29002  0.99292  0.63614  1.0000
  H   H148      1.0  0.27017  0.17911  0.89605  1.0000
  H   H149      1.0  0.25794  0.15509  0.91411  1.0000
  H   H150      1.0  0.27138  0.09711  0.80564  1.0000
  H   H151      1.0  0.22015  0.17576  0.80862  1.0000
  H   H152      1.0  0.27008  0.13119  0.89012  1.0000
  H   H153      1.0  0.30312  0.17677  0.85181  1.0000
  C   C77       1.0  0.33507  0.04786  0.59956  1.0000
  C   C78       1.0  0.35534  0.05745  0.59408  1.0000
  C   C79       1.0  0.36707  0.04728  0.58233  1.0000
  C   C80       1.0  0.35867  0.02742  0.57671  1.0000
  C   C81       1.0  0.33840  0.01777  0.58258  1.0000
  C   C82       1.0  0.32658  0.02802  0.59372  1.0000
  H   H154      1.0  0.36197  0.07281  0.59869  1.0000
  H   H155      1.0  0.33183  0.00247  0.57874  1.0000
  H   H156      1.0  0.31097  0.02059  0.59816  1.0000
  C   C83       1.0  0.25598  0.10254  0.66527  1.0000
  C   C84       1.0  0.24797  0.11528  0.68203  1.0000
  C   C85       1.0  0.25824  0.13536  0.67999  1.0000
  C   C86       1.0  0.27662  0.14294  0.66084  1.0000
  C   C87       1.0  0.28474  0.13018  0.64472  1.0000
  C   C88       1.0  0.27454  0.11012  0.64700  1.0000
  H   H157      1.0  0.23363  0.10959  0.69627  1.0000
  H   H158      1.0  0.25177  0.14498  0.69246  1.0000
  H   H159      1.0  0.29898  0.13586  0.63007  1.0000
  H   H160      1.0  0.28102  0.10054  0.63444  1.0000
  H   H161      1.0  0.33116  0.06145  0.74341  1.0000
  H   H162      1.0  0.22282  0.19014  0.57723  1.0000
  C   C89       1.0  0.28928  0.17223  0.83306  1.0000
  C   C90       1.0  0.26865  0.21564  0.93541  1.0000
  H   H163      1.0  0.36253  0.02035  0.75467  1.0000
  H   H164      1.0  0.30040  0.15451  0.79472  1.0000
  Fe  Fe12      1.0  0.24811  0.20460  0.70824  1.0000
  H   H165      1.0  0.13153  0.22357  0.82739  1.0000
  H   H166      1.0  0.24274  0.20966  0.89659  1.0000
  C   C91       1.0  0.26607  0.10986  0.52850  1.0000
  N   N5        1.0  0.33246  0.00657  0.73134  1.0000
  C   C92       1.0  0.42471  0.01153  0.61475  1.0000
  H   H167      1.0  0.42059  0.00653  0.58247  1.0000
  C   C93       1.0  0.31746  0.05178  0.72780  1.0000
  H   H168      1.0  0.39076  0.04387  0.66008  1.0000
  C   C94       1.0  0.23494  0.08482  0.54773  1.0000
  C   C95       1.0  0.35455  0.01384  0.72573  1.0000
  H   H169      1.0  0.17626  0.18352  0.74611  1.0000
  H   H170      1.0  0.33742  0.03287  0.76445  1.0000
  C   C96       1.0  0.20503  0.05712  0.57402  1.0000
  H   H171      1.0  0.29696  0.22232  0.96501  1.0000
  H   H172      1.0  0.23979  0.14693  0.61161  1.0000
  C   C97       1.0  0.32248  0.99679  0.69203  1.0000
  C   C98       1.0  0.29484  0.16635  0.79071  1.0000
  Fe  Fe13      1.0  0.28790  0.22045  0.75102  1.0000
  H   H173      1.0  0.44177  0.99548  0.77243  1.0000
  C   C99       1.0  0.33820  0.99831  0.80743  1.0000
  C   C100      1.0  0.32745  0.99157  0.76531  1.0000
  H   H174      1.0  0.30518  0.04715  0.75019  1.0000
  C   C101      1.0  0.17540  0.21037  0.76716  1.0000
  H   H175      1.0  0.32514  0.18719  0.78999  1.0000
  S   S22       1.0  0.37403  0.01517  0.56335  1.0000
  C   C102      1.0  0.45123  0.01198  0.01696  1.0000
  H   H176      1.0  0.22158  0.22030  0.64806  1.0000
  C   C103      1.0  0.18461  0.19866  0.75079  1.0000
  S   S23       1.0  0.30418  0.22215  0.69122  1.0000
  H   H177      1.0  0.38131  0.04924  0.00087  1.0000
  H   H178      1.0  0.39925  0.01639  0.00146  1.0000
  C   C104      1.0  0.28957  0.22354  0.86026  1.0000
  H   H179      1.0  0.21794  0.99130  0.73245  1.0000
  C   C105      1.0  0.32587  0.02254  0.74437  1.0000
  H   H180      1.0  0.31248  0.01681  0.76393  1.0000
  H   H181      1.0  0.15996  0.20426  0.77510  1.0000
  H   H182      1.0  0.29767  0.17451  0.99284  1.0000
  C   C106      1.0  0.20455  0.20649  0.74033  1.0000
  Fe  Fe14      1.0  0.35990  0.98318  0.55676  1.0000
  H   H183      1.0  0.16760  0.21322  0.86814  1.0000
  H   H184      1.0  0.31467  0.17857  0.73975  1.0000
  H   H185      1.0  0.11084  0.18344  0.85287  1.0000
  H   H186      1.0  0.28209  0.16172  0.76890  1.0000
  H   H187      1.0  0.33222  0.03968  0.68636  1.0000
  C   C107      1.0  0.17220  0.22492  0.89135  1.0000
  H   H188      1.0  0.27140  0.12958  0.79498  1.0000
  H   H189      1.0  0.25245  0.11596  0.82953  1.0000
  C   C108      1.0  0.21149  0.18592  0.60172  1.0000
  H   H190      1.0  0.36313  0.04339  0.70288  1.0000
  H   H191      1.0  0.32948  0.98674  0.68121  1.0000
  H   H192      1.0  0.19085  0.19589  0.63046  1.0000
  C   C109      1.0  0.42844  0.98216  0.77521  1.0000
  H   H193      1.0  0.38552  0.01887  0.67058  1.0000
  H   H194      1.0  0.29229  0.99295  0.71150  1.0000
  C   C110      1.0  0.38470  0.03224  0.68339  1.0000
  H   H195      1.0  0.38022  0.98435  0.75122  1.0000
  H   H196      1.0  0.44796  0.98324  0.70317  1.0000
  C   C111      1.0  0.32057  0.03437  0.70970  1.0000
  H   H197      1.0  0.21403  0.15058  0.81960  1.0000
  H   H198      1.0  0.30219  0.18080  0.91874  1.0000
  H   H199      1.0  0.26122  0.21727  0.83077  1.0000
  H   H200      1.0  0.27496  0.10096  0.86064  1.0000
  H   H201      1.0  0.25516  0.18274  0.82378  1.0000
  H   H202      1.0  0.35643  0.03224  0.99354  1.0000
  H   H203      1.0  0.22891  0.16167  0.77535  1.0000
  H   H204      1.0  0.28610  0.18552  0.82860  1.0000
  N   N6        1.0  0.24401  0.10479  0.52932  1.0000
  C   C112      1.0  0.31148  0.18299  0.77064  1.0000
  S   S24       1.0  0.26088  0.20444  0.64584  1.0000
  H   H205      1.0  0.97848  0.22796  0.89968  1.0000
  C   C113      1.0  0.36328  0.02942  0.69218  1.0000
  H   H206      1.0  0.41754  0.98526  0.79461  1.0000
  C   C114      1.0  0.21702  0.22097  0.61524  1.0000
  H   H207      1.0  0.27958  0.18372  0.97365  1.0000
  S   S25       1.0  0.21537  0.19161  0.71816  1.0000
  H   H208      1.0  0.30671  0.02552  0.69341  1.0000
  C   C115      1.0  0.96937  0.22761  0.92706  1.0000
  H   H209      1.0  0.09337  0.23116  0.88646  1.0000
  H   H210      1.0  0.97838  0.22797  0.95534  1.0000
  H   H211      1.0  0.27166  0.10865  0.56030  1.0000
  H   H212      1.0  0.25523  0.16729  0.58223  1.0000
  H   H213      1.0  0.30727  0.19567  0.76637  1.0000
  H   H214      1.0  0.41128  0.01126  0.63084  1.0000
  H   H215      1.0  0.24259  0.08395  0.57740  1.0000
  H   H216      1.0  0.33830  0.01257  0.81639  1.0000
  H   H217      1.0  0.38275  0.05482  0.57804  1.0000
  C   C116      1.0  0.21527  0.22606  0.74654  1.0000
  H   H218      1.0  0.45420  0.99965  0.53585  1.0000
  H   H219      1.0  0.39391  0.03627  0.71201  1.0000
  H   H220      1.0  0.31136  0.98615  0.77168  1.0000
  H   H221      1.0  0.23105  0.15280  0.56251  1.0000
  H   H222      1.0  0.27249  0.15840  0.98484  1.0000
  H   H223      1.0  0.20015  0.17170  0.59378  1.0000
  H   H224      1.0  0.09863  0.20640  0.78567  1.0000
  H   H225      1.0  0.16991  0.21044  0.61342  1.0000
  C   C117      1.0  0.28918  0.22127  0.93582  1.0000
  H   H226      1.0  0.35509  0.02562  0.66262  1.0000
  C   C118      1.0  0.18601  0.23003  0.77229  1.0000
  H   H227      1.0  0.35907  0.00155  0.71881  1.0000
  C   C119      1.0  0.23900  0.11842  0.55715  1.0000
  C   C120      1.0  0.44900  0.98441  0.52973  1.0000
  H   H228      1.0  0.41504  0.98691  0.71894  1.0000
  H   H229      1.0  0.19383  0.20041  0.57557  1.0000
  C   C121      1.0  0.10828  0.18697  0.82033  1.0000
  C   C122      1.0  0.26907  0.21827  0.85990  1.0000
  S   S26       1.0  0.25489  0.20981  0.98154  1.0000
  C   C123      1.0  0.21248  0.07760  0.55679  1.0000
  N   N7        1.0  0.27274  0.15715  0.85591  1.0000
  C   C124      1.0  0.25305  0.15294  0.83419  1.0000
  C   C125      1.0  0.27676  0.13880  0.86106  1.0000
  C   C126      1.0  0.27153  0.16481  0.89844  1.0000
  C   C127      1.0  0.24437  0.16897  0.83502  1.0000
  C   C128      1.0  0.28941  0.16792  0.92828  1.0000
  C   C129      1.0  0.26867  0.12340  0.82654  1.0000
  C   C130      1.0  0.27788  0.10814  0.82989  1.0000
  C   C131      1.0  0.22574  0.16384  0.80799  1.0000
  S   S27       1.0  0.24405  0.98301  0.67350  1.0000
  H   H230      1.0  0.24169  0.14009  0.84853  1.0000
  H   H231      1.0  0.25377  0.14929  0.80124  1.0000
  H   H232      1.0  0.29294  0.14224  0.86476  1.0000
  H   H233      1.0  0.32463  0.00726  0.66649  1.0000
  H   H234      1.0  0.22801  0.23130  0.93592  1.0000
  H   H235      1.0  0.43541  0.02659  0.61366  1.0000
  C   C132      1.0  0.25865  0.21410  0.89728  1.0000
  H   H236      1.0  0.20787  0.04717  0.55206  1.0000
  H   H237      1.0  0.04386  0.22572  0.84404  1.0000
  H   H238      1.0  0.35372  0.99926  0.80570  1.0000
  H   H239      1.0  0.43851  0.00495  0.66872  1.0000
  C   C133      1.0  0.17216  0.22487  0.62534  1.0000
  H   H240      1.0  0.21847  0.18441  0.63159  1.0000
  S   S28       1.0  0.30321  0.22818  0.81395  1.0000
  H   H241      1.0  0.16531  0.21898  0.92135  1.0000
  H   H242      1.0  0.44744  1.00000  0.62030  1.0000
  C   C134      1.0  0.25323  0.13981  0.55754  1.0000
  H   H243      1.0  0.23866  0.11370  0.59011  1.0000
  C   C135      1.0  0.10130  0.20386  0.81864  1.0000
  H   H244      1.0  0.12217  0.19043  0.80284  1.0000
  H   H245      1.0  0.37612  0.02967  0.96447  1.0000
  S   S29       1.0  0.32283  0.98764  0.99646  1.0000
  H   H246      1.0  0.29989  0.10056  0.53507  1.0000
  C   C136      1.0  0.29957  0.22504  0.89836  1.0000
  H   H247      1.0  0.19640  0.22965  0.66878  1.0000
  C   C137      1.0  0.43401  0.99887  0.63742  1.0000
  H   H248      1.0  0.44382  0.00282  0.99021  1.0000
  H   H249      1.0  0.26160  0.03511  0.01414  1.0000
  H   H250      1.0  0.23073  0.22351  0.59753  1.0000
  C   C138      1.0  0.20175  0.20071  0.60518  1.0000
  H   H251      1.0  0.21544  0.21810  0.99618  1.0000
  H   H252      1.0  0.08722  0.19937  0.83564  1.0000
  C   C139      1.0  0.28442  0.17133  0.97251  1.0000
  C   C140      1.0  0.11669  0.22180  0.83921  1.0000
  H   H253      1.0  0.20924  0.08679  0.58000  1.0000
  H   H254      1.0  0.18917  0.22642  0.55737  1.0000
  H   H255      1.0  0.16090  0.21305  0.68567  1.0000
  C   C141      1.0  0.37222  0.03392  0.99489  1.0000
  H   H256      1.0  0.31541  0.22897  0.89884  1.0000
  H   H257      1.0  0.22044  0.22458  0.53145  1.0000
  C   C142      1.0  0.15813  0.22239  0.66140  1.0000
  H   H258      1.0  0.14261  0.21554  0.65035  1.0000
  H   H259      1.0  0.36535  0.00619  0.02230  1.0000
  H   H260      1.0  0.31357  0.98429  0.84843  1.0000
  H   H261      1.0  0.19912  0.22121  0.90720  1.0000
  H   H262      1.0  0.18890  0.05210  0.57920  1.0000
  H   H263      1.0  0.21240  0.05663  0.60409  1.0000
  H   H264      1.0  0.11709  0.21796  0.87238  1.0000
  C   C143      1.0  0.05788  0.23020  0.86224  1.0000
  H   H265      1.0  0.96562  0.22950  0.54966  1.0000
  C   C144      1.0  0.32844  0.98423  0.84212  1.0000
  H   H266      1.0  0.20375  0.07738  0.52831  1.0000
  H   H267      1.0  0.23692  0.07393  0.52712  1.0000
  Fe  Fe15      1.0  0.35590  0.36310  0.40266  1.0000
  S   S30       1.0  0.36025  0.39354  0.41823  1.0000
  S   S31       1.0  0.35091  0.34919  0.33904  1.0000
  C   C145      1.0  0.96533  0.45863  0.17651  1.0000
  C   C146      1.0  0.40812  0.45143  0.31805  1.0000
  H   H268      1.0  0.96973  0.35362  0.03746  1.0000
  Fe  Fe16      1.0  0.33811  0.37989  0.46782  1.0000
  S   S32       1.0  0.31304  0.38966  0.47891  1.0000
  Fe  Fe17      1.0  0.38288  0.39241  0.46587  1.0000
  C   C147      1.0  0.36708  0.44617  0.42156  1.0000
  S   S33       1.0  0.33189  0.34965  0.44879  1.0000
  S   S34       1.0  0.37993  0.36249  0.44647  1.0000
  N   N8        1.0  0.96597  0.47746  0.10758  1.0000
  S   S35       1.0  0.33819  0.35730  0.08319  1.0000
  H   H269      1.0  0.39562  0.43867  0.30632  1.0000
  H   H270      1.0  0.37252  0.25368  0.20195  1.0000
  S   S36       1.0  0.34973  0.40256  0.05557  1.0000
  Fe  Fe18      1.0  0.35802  0.38625  0.10695  1.0000
  S   S37       1.0  0.35956  0.39749  0.17258  1.0000
  C   C148      1.0  0.23197  0.24101  0.03659  1.0000
  S   S38       1.0  0.38528  0.38673  0.07456  1.0000
  C   C149      1.0  0.98678  0.35651  0.44703  1.0000
  Fe  Fe19      1.0  0.00672  0.27543  0.27473  1.0000
  S   S39       1.0  0.99326  0.29471  0.24494  1.0000
  C   C150      1.0  0.32424  0.42937  0.17829  1.0000
  Fe  Fe20      1.0  0.04604  0.30770  0.29233  1.0000
  S   S40       1.0  0.03492  0.32972  0.26431  1.0000
  S   S41       1.0  0.07807  0.31925  0.31643  1.0000
  Fe  Fe21      1.0  0.00670  0.31444  0.29835  1.0000
  S   S42       1.0  0.98419  0.32603  0.32319  1.0000
  Fe  Fe22      1.0  0.02224  0.30823  0.21347  1.0000
  S   S43       1.0  0.02474  0.31959  0.14750  1.0000
  S   S44       1.0  0.01855  0.29405  0.33050  1.0000
  S   S45       1.0  0.03498  0.28728  0.23915  1.0000
  Fe  Fe23      1.0  0.17423  0.29000  0.36211  1.0000
  S   S46       1.0  0.18181  0.26665  0.39408  1.0000
  S   S47       1.0  0.14213  0.27978  0.33830  1.0000
  Fe  Fe24      1.0  0.21548  0.31906  0.38171  1.0000
  S   S48       1.0  0.22523  0.29797  0.41642  1.0000
  S   S49       1.0  0.23498  0.35013  0.37239  1.0000
  Fe  Fe25      1.0  0.21120  0.27847  0.36291  1.0000
  S   S50       1.0  0.22721  0.25915  0.34169  1.0000
  Fe  Fe26      1.0  0.19510  0.28811  0.44451  1.0000
  S   S51       1.0  0.99019  0.24357  0.28059  1.0000
  S   S52       1.0  0.20281  0.30014  0.32650  1.0000
  S   S53       1.0  0.18641  0.31090  0.41402  1.0000
  H   H271      1.0  0.40232  0.46320  0.31808  1.0000
  S   S54       1.0  0.33824  0.24894  0.09785  1.0000
  H   H272      1.0  0.15174  0.27387  0.44698  1.0000
  C   C151      1.0  0.23443  0.25776  0.29000  1.0000
  C   C152      1.0  0.23362  0.27084  0.25951  1.0000
  C   C153      1.0  0.23993  0.26953  0.21908  1.0000
  C   C154      1.0  0.12267  0.28910  0.10541  1.0000
  H   H273      1.0  0.22803  0.28190  0.26699  1.0000
  H   H274      1.0  0.23905  0.27961  0.19562  1.0000
  C   C155      1.0  0.12478  0.29127  0.33125  1.0000
  C   C156      1.0  0.12984  0.31099  0.33696  1.0000
  C   C157      1.0  0.11541  0.31930  0.33190  1.0000
  C   C158      1.0  0.09578  0.30807  0.32072  1.0000
  C   C159      1.0  0.09078  0.28837  0.31454  1.0000
  C   C160      1.0  0.10518  0.28006  0.31986  1.0000
  H   H275      1.0  0.14487  0.31985  0.34518  1.0000
  H   H276      1.0  0.11948  0.33454  0.33673  1.0000
  H   H277      1.0  0.07577  0.27951  0.30607  1.0000
  H   H278      1.0  0.10108  0.26480  0.31522  1.0000
  C   C161      1.0  0.24184  0.24353  0.27970  1.0000
  C   C162      1.0  0.00409  0.35560  0.43041  1.0000
  C   C163      1.0  0.00348  0.34574  0.39322  1.0000
  C   C164      1.0  0.98557  0.33703  0.37192  1.0000
  C   C165      1.0  0.98532  0.25396  0.51745  1.0000
  H   H279      1.0  0.07140  0.31665  0.20890  1.0000
  H   H280      1.0  0.01808  0.36268  0.44621  1.0000
  H   H281      1.0  0.01694  0.34530  0.38055  1.0000
  H   H282      1.0  0.06835  0.28898  0.18138  1.0000
  H   H283      1.0  0.01604  0.40254  0.37652  1.0000
  H   H284      1.0  0.26685  0.33798  0.33722  1.0000
  H   H285      1.0  0.97086  0.44782  0.16424  1.0000
  C   C166      1.0  0.96742  0.31072  0.16662  1.0000
  C   C167      1.0  0.36694  0.28049  0.06701  1.0000
  C   C168      1.0  0.34714  0.27261  0.07838  1.0000
  C   C169      1.0  0.33568  0.28410  0.07672  1.0000
  C   C170      1.0  0.34424  0.30352  0.06409  1.0000
  H   H286      1.0  0.25009  0.26445  0.46651  1.0000
  H   H287      1.0  0.37591  0.27177  0.06844  1.0000
  H   H288      1.0  0.32043  0.27820  0.08600  1.0000
  H   H289      1.0  0.33551  0.31246  0.06317  1.0000
  S   S55       1.0  0.28402  0.24370  0.07183  1.0000
  H   H290      1.0  0.00920  0.37756  0.21335  1.0000
  Fe  Fe27      1.0  0.33203  0.37350  0.02881  1.0000
  C   C171      1.0  0.00797  0.27320  0.07143  1.0000
  C   C172      1.0  0.01142  0.28463  0.10712  1.0000
  C   C173      1.0  0.01888  0.30464  0.10355  1.0000
  C   C174      1.0  0.02255  0.31312  0.06406  1.0000
  H   H291      1.0  0.07835  0.30941  0.44774  1.0000
  H   H292      1.0  0.00231  0.25772  0.07443  1.0000
  H   H293      1.0  0.00844  0.27796  0.13738  1.0000
  H   H294      1.0  0.02832  0.32860  0.06098  1.0000
  H   H295      1.0  0.14715  0.23939  0.44236  1.0000
  C   C175      1.0  0.29193  0.37810  0.44806  1.0000
  C   C176      1.0  0.28342  0.35801  0.44557  1.0000
  C   C177      1.0  0.26558  0.34916  0.42346  1.0000
  C   C178      1.0  0.25673  0.36039  0.40230  1.0000
  C   C179      1.0  0.26562  0.38041  0.40392  1.0000
  C   C180      1.0  0.28290  0.38922  0.42737  1.0000
  H   H296      1.0  0.29024  0.34932  0.46174  1.0000
  H   H297      1.0  0.25876  0.33374  0.42256  1.0000
  H   H298      1.0  0.25886  0.38916  0.38770  1.0000
  H   H299      1.0  0.28932  0.40472  0.42939  1.0000
  H   H300      1.0  0.98274  0.42639  0.05670  1.0000
  C   C181      1.0  0.96551  0.23896  0.38953  1.0000
  C   C182      1.0  0.09830  0.30398  0.12788  1.0000
  C   C183      1.0  0.35407  0.36290  0.29304  1.0000
  C   C184      1.0  0.36111  0.38295  0.29359  1.0000
  C   C185      1.0  0.36313  0.39334  0.25630  1.0000
  C   C186      1.0  0.35822  0.38380  0.21817  1.0000
  C   C187      1.0  0.35112  0.36372  0.21764  1.0000
  C   C188      1.0  0.34897  0.35334  0.25502  1.0000
  H   H301      1.0  0.36477  0.39043  0.32274  1.0000
  H   H302      1.0  0.36839  0.40886  0.25698  1.0000
  H   H303      1.0  0.34686  0.35625  0.18854  1.0000
  H   H304      1.0  0.34297  0.33784  0.25477  1.0000
  N   N9        1.0  0.29874  0.37959  0.23338  1.0000
  C   C189      1.0  0.30560  0.37278  0.27272  1.0000
  C   C190      1.0  0.29967  0.36694  0.19804  1.0000
  C   C191      1.0  0.27833  0.38025  0.23664  1.0000
  C   C192      1.0  0.26342  0.36511  0.26509  1.0000
  C   C193      1.0  0.30984  0.38666  0.30997  1.0000
  C   C194      1.0  0.28783  0.34512  0.20244  1.0000
  S   S56       1.0  0.36077  0.38087  0.51679  1.0000
  C   C195      1.0  0.01146  0.36404  0.22109  1.0000
  C   C196      1.0  0.31202  0.37676  0.35027  1.0000
  H   H305      1.0  0.31943  0.37024  0.26707  1.0000
  H   H306      1.0  0.29493  0.35864  0.28283  1.0000
  H   H307      1.0  0.29410  0.37125  0.16883  1.0000
  H   H308      1.0  0.31535  0.36895  0.19228  1.0000
  H   H309      1.0  0.25085  0.31341  0.32902  1.0000
  H   H310      1.0  0.27140  0.37917  0.20532  1.0000
  H   H311      1.0  0.26771  0.36827  0.29811  1.0000
  H   H312      1.0  0.26261  0.35039  0.25900  1.0000
  H   H313      1.0  0.29792  0.39235  0.31364  1.0000
  H   H314      1.0  0.29177  0.33914  0.23125  1.0000
  H   H315      1.0  0.27179  0.34220  0.20149  1.0000
  H   H316      1.0  0.27282  0.26010  0.34010  1.0000
  H   H317      1.0  0.96382  0.30635  0.19942  1.0000
  H   H318      1.0  0.09130  0.27786  0.41348  1.0000
  H   H319      1.0  0.00700  0.35295  0.15931  1.0000
  H   H320      1.0  0.31548  0.40066  0.15635  1.0000
  C   C197      1.0  0.99173  0.41018  0.35125  1.0000
  H   H321      1.0  0.29778  0.36528  0.35844  1.0000
  H   H322      1.0  0.32349  0.37042  0.34758  1.0000
  H   H323      1.0  0.31649  0.38741  0.37567  1.0000
  N   N10       1.0  0.36692  0.30763  0.19398  1.0000
  C   C198      1.0  0.36701  0.28798  0.18457  1.0000
  C   C199      1.0  0.34727  0.30867  0.18120  1.0000
  C   C200      1.0  0.38282  0.32207  0.16830  1.0000
  C   C201      1.0  0.37172  0.31284  0.23887  1.0000
  C   C202      1.0  0.35776  0.29942  0.27103  1.0000
  C   C203      1.0  0.38647  0.28477  0.19395  1.0000
  C   C204      1.0  0.38282  0.34282  0.16670  1.0000
  C   C205      1.0  0.32848  0.29028  0.18719  1.0000
  C   C206      1.0  0.30968  0.29446  0.18054  1.0000
  C   C207      1.0  0.38428  0.26426  0.18322  1.0000
  C   C208      1.0  0.40117  0.35652  0.14506  1.0000
  H   H324      1.0  0.36343  0.28483  0.15136  1.0000
  H   H325      1.0  0.35521  0.27646  0.20113  1.0000
  H   H326      1.0  0.34510  0.32080  0.19700  1.0000
  H   H327      1.0  0.34717  0.31201  0.14757  1.0000
  H   H328      1.0  0.38177  0.31712  0.13564  1.0000
  H   H329      1.0  0.39771  0.32332  0.17979  1.0000
  H   H330      1.0  0.38710  0.31413  0.24646  1.0000
  H   H331      1.0  0.37156  0.32730  0.24514  1.0000
  H   H332      1.0  0.35495  0.28409  0.26532  1.0000
  H   H333      1.0  0.34360  0.30175  0.27054  1.0000
  H   H334      1.0  0.39876  0.29454  0.17521  1.0000
  H   H335      1.0  0.39055  0.28701  0.22722  1.0000
  H   H336      1.0  0.38278  0.34864  0.19796  1.0000
  H   H337      1.0  0.36973  0.34323  0.14923  1.0000
  H   H338      1.0  0.32818  0.27921  0.16434  1.0000
  H   H339      1.0  0.32783  0.28385  0.21824  1.0000
  H   H340      1.0  0.30932  0.30043  0.14903  1.0000
  H   H341      1.0  0.29657  0.28093  0.18360  1.0000
  H   H342      1.0  0.30871  0.30475  0.20405  1.0000
  S   S57       1.0  0.25443  0.25400  0.15694  1.0000
  H   H343      1.0  0.14448  0.28846  0.52332  1.0000
  C   C209      1.0  0.96880  0.34727  0.42635  1.0000
  H   H344      1.0  0.40134  0.35221  0.11236  1.0000
  H   H345      1.0  0.40111  0.37131  0.14555  1.0000
  H   H346      1.0  0.41482  0.35672  0.16116  1.0000
  C   C210      1.0  0.13806  0.30408  0.45465  1.0000
  H   H347      1.0  0.42432  0.39637  0.38019  1.0000
  H   H348      1.0  0.14158  0.32708  0.49983  1.0000
  C   C211      1.0  0.41587  0.45768  0.24197  1.0000
  C   C212      1.0  0.06314  0.28929  0.14895  1.0000
  H   H349      1.0  0.28450  0.24205  0.28608  1.0000
  H   H350      1.0  0.33996  0.43116  0.18316  1.0000
  H   H351      1.0  0.99536  0.35890  0.05187  1.0000
  H   H352      1.0  0.99318  0.25705  0.41906  1.0000
  C   C213      1.0  0.97386  0.42956  0.37905  1.0000
  C   C214      1.0  0.38593  0.45548  0.39671  1.0000
  H   H353      1.0  0.40532  0.44317  0.23316  1.0000
  H   H354      1.0  0.01683  0.40072  0.29904  1.0000
  H   H355      1.0  0.07448  0.35041  0.19833  1.0000
  H   H356      1.0  0.40815  0.46798  0.24062  1.0000
  H   H357      1.0  0.00231  0.41321  0.50836  1.0000
  H   H358      1.0  0.04912  0.29199  0.15074  1.0000
  H   H359      1.0  0.96580  0.42467  0.31270  1.0000
  C   C215      1.0  0.40920  0.41226  0.34607  1.0000
  C   C216      1.0  0.08765  0.34671  0.20510  1.0000
  H   H360      1.0  0.98805  0.46783  0.22497  1.0000
  H   H361      1.0  0.12576  0.32694  0.45646  1.0000
  C   C217      1.0  0.07561  0.29543  0.43255  1.0000
  C   C218      1.0  0.07071  0.30487  0.08075  1.0000
  C   C219      1.0  0.15664  0.33993  0.44455  1.0000
  H   H362      1.0  0.15284  0.30358  0.46137  1.0000
  H   H363      1.0  0.10071  0.35722  0.18955  1.0000
  H   H364      1.0  0.23732  0.36180  0.22708  1.0000
  H   H365      1.0  0.99011  0.48139  0.15132  1.0000
  H   H366      1.0  0.05266  0.26711  0.10028  1.0000
  C   C220      1.0  0.96825  0.33787  0.38866  1.0000
  H   H367      1.0  0.17088  0.33912  0.45520  1.0000
  H   H368      1.0  0.22382  0.23354  0.06437  1.0000
  H   H369      1.0  0.35037  0.31413  0.39150  1.0000
  H   H370      1.0  0.26333  0.25108  0.40875  1.0000
  C   C221      1.0  0.24810  0.24220  0.23922  1.0000
  H   H371      1.0  0.99505  0.25337  0.36462  1.0000
  C   C222      1.0  0.13447  0.24401  0.43728  1.0000
  H   H372      1.0  0.99358  0.38032  0.30021  1.0000
  C   C223      1.0  0.27352  0.26307  0.42767  1.0000
  N   N11       1.0  0.98032  0.41288  0.38760  1.0000
  H   H373      1.0  0.43656  0.43663  0.34476  1.0000
  N   N12       1.0  0.07811  0.30529  0.12476  1.0000
  C   C224      1.0  0.26419  0.26209  0.46990  1.0000
  H   H374      1.0  0.28737  0.26049  0.43254  1.0000
  H   H375      1.0  0.30612  0.25517  0.25685  1.0000
  H   H376      1.0  0.39833  0.43472  0.41693  1.0000
  H   H377      1.0  0.07003  0.29615  0.40061  1.0000
  H   H378      1.0  0.97237  0.41488  0.47200  1.0000
  H   H379      1.0  0.42792  0.46228  0.21904  1.0000
  C   C225      1.0  0.98196  0.36202  0.05861  1.0000
  H   H380      1.0  0.06408  0.28379  0.44957  1.0000
  H   H381      1.0  0.42466  0.47853  0.37052  1.0000
  C   C226      1.0  0.36413  0.31124  0.05277  1.0000
  H   H382      1.0  0.23231  0.35423  0.28006  1.0000
  C   C227      1.0  0.00051  0.34830  0.19017  1.0000
  H   H383      1.0  0.24236  0.37948  0.26785  1.0000
  H   H384      1.0  0.98290  0.31177  0.16276  1.0000
  C   C228      1.0  0.09466  0.29144  0.43075  1.0000
  H   H385      1.0  0.38192  0.46150  0.36804  1.0000
  H   H386      1.0  0.98829  0.45449  0.10271  1.0000
  C   C229      1.0  0.08197  0.32276  0.05392  1.0000
  H   H387      1.0  0.43311  0.40319  0.32803  1.0000
  H   H388      1.0  0.38048  0.26138  0.14987  1.0000
  Fe  Fe28      1.0  0.30555  0.23208  0.09946  1.0000
  H   H389      1.0  0.00628  0.35934  0.25295  1.0000
  C   C230      1.0  0.01204  0.28168  0.03198  1.0000
  C   C231      1.0  0.97591  0.35740  0.10365  1.0000
  H   H390      1.0  0.09726  0.32299  0.19887  1.0000
  H   H391      1.0  0.09133  0.27724  0.48968  1.0000
  H   H392      1.0  0.21876  0.23736  0.46313  1.0000
  C   C232      1.0  0.96554  0.23310  0.26285  1.0000
  C   C233      1.0  0.99447  0.41821  0.42423  1.0000
  H   H393      1.0  0.98638  0.43950  0.45813  1.0000
  H   H394      1.0  0.42718  0.43032  0.39463  1.0000
  H   H395      1.0  0.32469  0.27931  0.38847  1.0000
  H   H396      1.0  0.30880  0.24798  0.30932  1.0000
  H   H397      1.0  0.25963  0.37286  0.50023  1.0000
  H   H398      1.0  0.43226  0.44704  0.28424  1.0000
  C   C234      1.0  0.29964  0.25315  0.28818  1.0000
  Fe  Fe29      1.0  0.35603  0.35112  0.49401  1.0000
  H   H399      1.0  0.28298  0.31861  0.16959  1.0000
  H   H400      1.0  0.37450  0.44605  0.03081  1.0000
  S   S58       1.0  0.98830  0.37009  0.49237  1.0000
  N   N13       1.0  0.28954  0.28751  0.36752  1.0000
  C   C235      1.0  0.28857  0.26943  0.34582  1.0000
  C   C236      1.0  0.27671  0.28254  0.40566  1.0000
  C   C237      1.0  0.28131  0.29849  0.33794  1.0000
  C   C238      1.0  0.31043  0.30028  0.37883  1.0000
  C   C239      1.0  0.32225  0.29093  0.40569  1.0000
  C   C240      1.0  0.29900  0.27212  0.30353  1.0000
  C   C241      1.0  0.27980  0.31714  0.35494  1.0000
  H   H401      1.0  0.30781  0.33611  0.16609  1.0000
  H   H402      1.0  0.32010  0.43793  0.20159  1.0000
  C   C242      1.0  0.34247  0.30557  0.41838  1.0000
  C   C243      1.0  0.26636  0.32373  0.32709  1.0000
  H   H403      1.0  0.42428  0.43398  0.04817  1.0000
  H   H404      1.0  0.97317  0.33854  0.22192  1.0000
  H   H405      1.0  0.28240  0.29417  0.42908  1.0000
  H   H406      1.0  0.26146  0.28178  0.39791  1.0000
  H   H407      1.0  0.26639  0.28894  0.32677  1.0000
  H   H408      1.0  0.29056  0.30308  0.30993  1.0000
  H   H409      1.0  0.31912  0.30643  0.35064  1.0000
  H   H410      1.0  0.31045  0.31302  0.39620  1.0000
  S   S59       1.0  0.18628  0.27686  0.50986  1.0000
  H   H411      1.0  0.31448  0.28513  0.43479  1.0000
  H   H412      1.0  0.29082  0.27711  0.27964  1.0000
  H   H413      1.0  0.31435  0.28261  0.30583  1.0000
  H   H414      1.0  0.29466  0.32879  0.35589  1.0000
  H   H415      1.0  0.27376  0.31523  0.38654  1.0000
  C   C244      1.0  0.13937  0.32459  0.46610  1.0000
  C   C245      1.0  0.42687  0.43947  0.48710  1.0000
  C   C246      1.0  0.97304  0.33635  0.11496  1.0000
  C   C247      1.0  0.42818  0.46593  0.38101  1.0000
  C   C248      1.0  0.41984  0.39813  0.34781  1.0000
  C   C249      1.0  0.07927  0.32404  0.14372  1.0000
  H   H416      1.0  0.34080  0.31548  0.44192  1.0000
  H   H417      1.0  0.35162  0.29806  0.43252  1.0000
  H   H418      1.0  0.27111  0.32484  0.29446  1.0000
  H   H419      1.0  0.98720  0.33436  0.10933  1.0000
  H   H420      1.0  0.38062  0.30172  0.31742  1.0000
  H   H421      1.0  0.09045  0.34770  0.23905  1.0000
  H   H422      1.0  0.07760  0.33492  0.06267  1.0000
  H   H423      1.0  0.35588  0.43456  0.40349  1.0000
  C   C250      1.0  0.36641  0.30394  0.31472  1.0000
  H   H424      1.0  0.01523  0.37870  0.32472  1.0000
  H   H425      1.0  0.27916  0.39443  0.24857  1.0000
  H   H426      1.0  0.98768  0.36769  0.12310  1.0000
  H   H427      1.0  0.13622  0.30258  0.42048  1.0000
  C   C251      1.0  0.24262  0.36525  0.25949  1.0000
  H   H428      1.0  0.99285  0.23428  0.40070  1.0000
  H   H429      1.0  0.36888  0.31903  0.32287  1.0000
  H   H430      1.0  0.29475  0.26081  0.36567  1.0000
  C   C252      1.0  0.31324  0.39964  0.22422  1.0000
  H   H431      1.0  0.32865  0.40011  0.22655  1.0000
  H   H432      1.0  0.32396  0.39899  0.30527  1.0000
  H   H433      1.0  0.27434  0.27314  0.49077  1.0000
  H   H434      1.0  0.96569  0.43195  0.40587  1.0000
  H   H435      1.0  0.35598  0.29422  0.33713  1.0000
  C   C253      1.0  0.00209  0.39561  0.35859  1.0000
  C   C254      1.0  0.31096  0.40816  0.18133  1.0000
  H   H436      1.0  0.29547  0.40684  0.17552  1.0000
  Fe  Fe30      1.0  0.26676  0.23276  0.13002  1.0000
  H   H437      1.0  0.39839  0.26224  0.18971  1.0000
  H   H438      1.0  0.31221  0.40992  0.24778  1.0000
  C   C255      1.0  0.24706  0.25514  0.20860  1.0000
  H   H439      1.0  0.05499  0.30342  0.08049  1.0000
  C   C256      1.0  0.12047  0.26921  0.45526  1.0000
  H   H440      1.0  0.11816  0.27044  0.42133  1.0000
  H   H441      1.0  0.39607  0.46750  0.41549  1.0000
  C   C257      1.0  0.44941  0.45880  0.02869  1.0000
  H   H442      1.0  0.00342  0.33536  0.19985  1.0000
  H   H443      1.0  0.99838  0.40573  0.43410  1.0000
  H   H444      1.0  0.00865  0.42981  0.41547  1.0000
  C   C258      1.0  0.00153  0.42732  0.49978  1.0000
  C   C259      1.0  0.13832  0.26283  0.46003  1.0000
  C   C260      1.0  0.00723  0.38849  0.31799  1.0000
  C   C261      1.0  0.39541  0.44057  0.38680  1.0000
  H   H445      1.0  0.40973  0.38388  0.33650  1.0000
  H   H446      1.0  0.02752  0.36688  0.22016  1.0000
  H   H447      1.0  0.38369  0.42848  0.37097  1.0000
  C   C262      1.0  0.42451  0.45723  0.28525  1.0000
  C   C263      1.0  0.44776  0.47883  0.50861  1.0000
  H   H448      1.0  0.10703  0.25719  0.46577  1.0000
  H   H449      1.0  0.13512  0.30305  0.10990  1.0000
  C   C264      1.0  0.96276  0.39494  0.39805  1.0000
  C   C265      1.0  0.29196  0.33418  0.16639  1.0000
  H   H450      1.0  0.15523  0.33812  0.41047  1.0000
  H   H451      1.0  0.09080  0.33638  0.12836  1.0000
  H   H452      1.0  0.42642  0.46524  0.41525  1.0000
  C   C266      1.0  0.41661  0.45097  0.49959  1.0000
  H   H453      1.0  0.36075  0.45710  0.42909  1.0000
  H   H454      1.0  0.40455  0.41317  0.31353  1.0000
  C   C267      1.0  0.42269  0.43229  0.36237  1.0000
  H   H455      1.0  0.06515  0.32630  0.13835  1.0000
  H   H456      1.0  0.39593  0.40599  0.36538  1.0000
  H   H457      1.0  0.14137  0.26042  0.49289  1.0000
  N   N14       1.0  0.41396  0.44770  0.36134  1.0000
  H   H458      1.0  0.10537  0.30320  0.41268  1.0000
  C   C268      1.0  0.45801  0.46734  0.49602  1.0000
  C   C269      1.0  0.97801  0.34396  0.19025  1.0000
  H   H459      1.0  0.41882  0.47911  0.51975  1.0000
  C   C270      1.0  0.37530  0.29959  0.05388  1.0000
  H   H460      1.0  0.99273  0.38295  0.37658  1.0000
  H   H461      1.0  0.97564  0.35777  0.18763  1.0000
  H   H462      1.0  0.32266  0.43496  0.14701  1.0000
  H   H463      1.0  0.98706  0.44303  0.37506  1.0000
  H   H464      1.0  0.37029  0.44003  0.45102  1.0000
  H   H465      1.0  0.00343  0.42414  0.34255  1.0000
  C   C271      1.0  0.98720  0.42514  0.46340  1.0000
  C   C272      1.0  0.08401  0.32631  0.19084  1.0000
  H   H466      1.0  0.45581  0.43922  0.47568  1.0000
  H   H467      1.0  0.20853  0.25403  0.48243  1.0000
  H   H468      1.0  0.28796  0.33929  0.13640  1.0000
  H   H469      1.0  0.98553  0.45981  0.04908  1.0000
  N   N15       1.0  0.12249  0.28767  0.47652  1.0000
  H   H470      1.0  0.11014  0.31856  0.12694  1.0000
  H   H471      1.0  0.09197  0.27813  0.08864  1.0000
  H   H472      1.0  0.10028  0.29799  0.15863  1.0000
  C   C273      1.0  0.10275  0.28983  0.47483  1.0000
  S   S60       1.0  0.41470  0.41483  0.47224  1.0000
  H   H473      1.0  0.24933  0.29462  0.49007  1.0000
  C   C274      1.0  0.98801  0.24641  0.39370  1.0000
  C   C275      1.0  0.12892  0.28769  0.52116  1.0000
  H   H474      1.0  0.98228  0.40582  0.32316  1.0000
  S   S61       1.0  0.37605  0.33519  0.03672  1.0000
  H   H475      1.0  0.15681  0.35441  0.45207  1.0000
  H   H476      1.0  0.23620  0.25668  0.04090  1.0000
  C   C276      1.0  0.04136  0.25425  0.15838  1.0000
  H   H477      1.0  0.13273  0.24596  0.40350  1.0000
  H   H478      1.0  0.97244  0.27646  0.15135  1.0000
  C   C277      1.0  0.44763  0.44788  0.48530  1.0000
  H   H479      1.0  0.96964  0.45839  0.32802  1.0000
  H   H480      1.0  0.97428  0.25423  0.49356  1.0000
  H   H481      1.0  0.12097  0.23251  0.44900  1.0000
  C   C278      1.0  0.45060  0.47073  0.37530  1.0000
  H   H482      1.0  0.45776  0.45921  0.05686  1.0000
  H   H483      1.0  0.12650  0.28123  0.08017  1.0000
  H   H484      1.0  0.45535  0.46064  0.39410  1.0000
  C   C279      1.0  0.97170  0.46184  0.22198  1.0000
  H   H485      1.0  0.26115  0.24774  0.48416  1.0000
  H   H486      1.0  0.39065  0.30545  0.04503  1.0000
  H   H487      1.0  0.02772  0.25751  0.15600  1.0000
  Fe  Fe31      1.0  0.36473  0.35893  0.04685  1.0000
  H   H488      1.0  0.26032  0.32820  0.51222  1.0000
  H   H489      1.0  0.96814  0.26891  0.38849  1.0000
  C   C280      1.0  0.10371  0.29233  0.09397  1.0000
  H   H490      1.0  0.07082  0.26430  0.13624  1.0000
  H   H491      1.0  0.96708  0.38569  0.42035  1.0000
  H   H492      1.0  0.03795  0.23949  0.14660  1.0000
  C   C281      1.0  0.20920  0.23960  0.48727  1.0000
  H   H493      1.0  0.04590  0.25461  0.19145  1.0000
  H   H494      1.0  0.09817  0.32731  0.05836  1.0000
  C   C282      1.0  0.05787  0.26859  0.13292  1.0000
  H   H495      1.0  0.07057  0.29197  0.06417  1.0000
  H   H496      1.0  0.10318  0.30243  0.49327  1.0000
  H   H497      1.0  0.96296  0.42145  0.09304  1.0000
  N   N16       1.0  0.96582  0.32990  0.15812  1.0000
  H   H498      1.0  0.10621  0.30026  0.06410  1.0000
  H   H499      1.0  0.40069  0.44485  0.50126  1.0000
  C   C283      1.0  0.97758  0.45173  0.07654  1.0000
  H   H500      1.0  0.99387  0.24567  0.50519  1.0000
  H   H501      1.0  0.12068  0.28041  0.13425  1.0000
  H   H502      1.0  0.01654  0.43751  0.49187  1.0000
  C   C284      1.0  0.24864  0.29790  0.52320  1.0000
  H   H503      1.0  0.20690  0.31811  0.52312  1.0000
  C   C285      1.0  0.97016  0.43037  0.06595  1.0000
  H   H504      1.0  0.24251  0.23333  0.30304  1.0000
  H   H505      1.0  0.37420  0.46990  0.03390  1.0000
  H   H506      1.0  0.96565  0.47185  0.23638  1.0000
  H   H507      1.0  0.43529  0.47190  0.29169  1.0000
  H   H508      1.0  0.27850  0.31787  0.52361  1.0000
  H   H509      1.0  0.24554  0.23774  0.03458  1.0000
  H   H510      1.0  0.98532  0.37750  0.05233  1.0000
  C   C286      1.0  0.42698  0.47045  0.51015  1.0000
  H   H511      1.0  0.45441  0.46956  0.34279  1.0000
  C   C287      1.0  0.97382  0.47761  0.15124  1.0000
  H   H512      1.0  0.98068  0.30745  0.04107  1.0000
  C   C288      1.0  0.01927  0.30170  0.02841  1.0000
  H   H513      1.0  0.96599  0.44794  0.23895  1.0000
  H   H514      1.0  0.96245  0.32711  0.09161  1.0000
  H   H515      1.0  0.99643  0.43301  0.52699  1.0000
  H   H516      1.0  0.99568  0.26889  0.52350  1.0000
  H   H517      1.0  0.97813  0.45735  0.64815  1.0000
  C   C289      1.0  0.97622  0.34376  0.72594  1.0000
  H   H518      1.0  0.28977  0.27947  0.92755  1.0000
  H   H519      1.0  0.96823  0.23888  0.79036  1.0000
  S   S62       1.0  0.28321  0.25736  0.61515  1.0000
  H   H520      1.0  0.33781  0.30259  0.85374  1.0000
  H   H521      1.0  0.34733  0.37030  0.61753  1.0000
  Fe  Fe32      1.0  0.03103  0.31825  0.87816  1.0000
  S   S63       1.0  0.00081  0.29888  0.89678  1.0000
  S   S64       1.0  0.04308  0.35039  0.88208  1.0000
  Fe  Fe33      1.0  0.04306  0.28577  0.85009  1.0000
  S   S65       1.0  0.01329  0.26327  0.86642  1.0000
  S   S66       1.0  0.06738  0.27934  0.81712  1.0000
  Fe  Fe34      1.0  0.99978  0.28316  0.83738  1.0000
  Fe  Fe35      1.0  0.01637  0.28072  0.92458  1.0000
  S   S67       1.0  0.00788  0.26690  0.98788  1.0000
  S   S68       1.0  0.02921  0.30421  0.81670  1.0000
  S   S69       1.0  0.04693  0.30139  0.91032  1.0000
  H   H522      1.0  0.23059  0.23223  0.73864  1.0000
  C   C290      1.0  0.25260  0.26330  0.83383  1.0000
  C   C291      1.0  0.45773  0.47262  0.99752  1.0000
  Fe  Fe36      1.0  0.19064  0.27634  0.78824  1.0000
  S   S70       1.0  0.22067  0.29315  0.76351  1.0000
  H   H523      1.0  0.22122  0.30261  0.01506  1.0000
  Fe  Fe37      1.0  0.18331  0.31135  0.81580  1.0000
  S   S71       1.0  0.21326  0.33166  0.79418  1.0000
  S   S72       1.0  0.16027  0.31853  0.85164  1.0000
  Fe  Fe38      1.0  0.20661  0.31293  0.73736  1.0000
  S   S73       1.0  0.21450  0.32623  0.67345  1.0000
  Fe  Fe39      1.0  0.22561  0.31062  0.82194  1.0000
  S   S74       1.0  0.25566  0.31523  0.85259  1.0000
  S   S75       1.0  0.17598  0.29453  0.75701  1.0000
  S   S76       1.0  0.19638  0.29200  0.84832  1.0000
  H   H524      1.0  0.34441  0.33561  0.94044  1.0000
  C   C292      1.0  0.41631  0.45842  0.68758  1.0000
  C   C293      1.0  0.20532  0.31251  0.62840  1.0000
  C   C294      1.0  0.19467  0.29273  0.63038  1.0000
  C   C295      1.0  0.18839  0.28217  0.59369  1.0000
  C   C296      1.0  0.19316  0.29113  0.55483  1.0000
  C   C297      1.0  0.20344  0.31098  0.55285  1.0000
  C   C298      1.0  0.20923  0.32162  0.58959  1.0000
  H   H525      1.0  0.19130  0.28562  0.66015  1.0000
  H   H526      1.0  0.17989  0.26697  0.59542  1.0000
  H   H527      1.0  0.32673  0.30008  0.98163  1.0000
  H   H528      1.0  0.21676  0.33701  0.58808  1.0000
  C   C299      1.0  0.34494  0.27333  0.96711  1.0000
  H   H529      1.0  0.12914  0.30086  0.53692  1.0000
  H   H530      1.0  0.41921  0.45037  0.71439  1.0000
  H   H531      1.0  0.98950  0.26241  0.72294  1.0000
  S   S77       1.0  0.35737  0.37319  0.99113  1.0000
  C   C300      1.0  0.28863  0.35335  0.96201  1.0000
  C   C301      1.0  0.29730  0.34265  0.93993  1.0000
  C   C302      1.0  0.28700  0.33111  0.90651  1.0000
  C   C303      1.0  0.26804  0.33027  0.89450  1.0000
  C   C304      1.0  0.25945  0.34106  0.91642  1.0000
  C   C305      1.0  0.26963  0.35239  0.95015  1.0000
  H   H532      1.0  0.31189  0.34326  0.94869  1.0000
  H   H533      1.0  0.29377  0.32285  0.88969  1.0000
  H   H534      1.0  0.24487  0.34053  0.90763  1.0000
  H   H535      1.0  0.26266  0.36040  0.96727  1.0000
  C   C306      1.0  0.09304  0.29222  0.82595  1.0000
  C   C307      1.0  0.10641  0.29272  0.79475  1.0000
  C   C308      1.0  0.12698  0.30083  0.80196  1.0000
  C   C309      1.0  0.13447  0.30884  0.84046  1.0000
  C   C310      1.0  0.12110  0.30891  0.87126  1.0000
  C   C311      1.0  0.10051  0.30060  0.86415  1.0000
  H   H536      1.0  0.10079  0.28657  0.76489  1.0000
  H   H537      1.0  0.13703  0.30093  0.77773  1.0000
  H   H538      1.0  0.12671  0.31522  0.90100  1.0000
  H   H539      1.0  0.09044  0.30039  0.88846  1.0000
  C   C312      1.0  0.26365  0.32284  0.57887  1.0000
  C   C313      1.0  0.32525  0.29607  0.87527  1.0000
  H   H540      1.0  0.24003  0.25717  0.59755  1.0000
  C   C314      1.0  0.22677  0.27414  0.96814  1.0000
  H   H541      1.0  0.20076  0.23749  0.86440  1.0000
  S   S78       1.0  0.17387  0.24443  0.79103  1.0000
  H   H542      1.0  0.31939  0.41046  0.97954  1.0000
  N   N17       1.0  0.11326  0.24038  0.83461  1.0000
  H   H543      1.0  0.24203  0.37723  0.53261  1.0000
  H   H544      1.0  0.21420  0.25299  0.76621  1.0000
  H   H545      1.0  0.13955  0.25540  0.69957  1.0000
  H   H546      1.0  0.32078  0.26777  0.84913  1.0000
  H   H547      1.0  0.31690  0.30587  0.87437  1.0000
  H   H548      1.0  0.33128  0.24209  0.96893  1.0000
  H   H549      1.0  0.10919  0.25925  0.78797  1.0000
  C   C315      1.0  0.30359  0.27669  0.59446  1.0000
  C   C316      1.0  0.32315  0.27926  0.60421  1.0000
  C   C317      1.0  0.33881  0.29457  0.58630  1.0000
  C   C318      1.0  0.33516  0.30749  0.55846  1.0000
  C   C319      1.0  0.31558  0.30496  0.54875  1.0000
  C   C320      1.0  0.29992  0.28971  0.56685  1.0000
  H   H550      1.0  0.32625  0.26940  0.62533  1.0000
  H   H551      1.0  0.25748  0.34260  0.63883  1.0000
  H   H552      1.0  0.27373  0.31838  0.66224  1.0000
  H   H553      1.0  0.28486  0.28788  0.55928  1.0000
  C   C321      1.0  0.02920  0.36185  0.90664  1.0000
  H   H554      1.0  0.08183  0.30738  0.99688  1.0000
  H   H555      1.0  0.38237  0.34368  0.89100  1.0000
  H   H556      1.0  0.06002  0.24411  0.87726  1.0000
  N   N18       1.0  0.22336  0.25836  0.93695  1.0000
  H   H557      1.0  0.09865  0.23495  0.77420  1.0000
  C   C322      1.0  0.23593  0.26705  0.89963  1.0000
  C   C323      1.0  0.22978  0.24330  0.95724  1.0000
  H   H558      1.0  0.19232  0.24704  0.95271  1.0000
  S   S79       1.0  0.35556  0.32634  0.53650  1.0000
  H   H559      1.0  0.08464  0.33214  0.98971  1.0000
  C   C324      1.0  0.21767  0.23817  0.53028  1.0000
  H   H560      1.0  0.25854  0.25382  0.81701  1.0000
  H   H561      1.0  0.33408  0.46973  0.83747  1.0000
  C   C325      1.0  0.31216  0.27704  0.85397  1.0000
  C   C326      1.0  0.45242  0.48035  0.68334  1.0000
  H   H562      1.0  0.22489  0.32005  0.97408  1.0000
  H   H563      1.0  0.15204  0.28551  0.90777  1.0000
  H   H564      1.0  0.22795  0.27338  0.87782  1.0000
  H   H565      1.0  0.24953  0.27939  0.90894  1.0000
  C   C327      1.0  0.35412  0.45194  0.98751  1.0000
  C   C328      1.0  0.37361  0.34666  0.91586  1.0000
  H   H566      1.0  0.40099  0.45804  0.68970  1.0000
  H   H567      1.0  0.96962  0.37101  0.83145  1.0000
  C   C329      1.0  0.01033  0.35166  0.92205  1.0000
  C   C330      1.0  0.33504  0.35669  0.60950  1.0000
  H   H568      1.0  0.97651  0.25808  0.92562  1.0000
  C   C331      1.0  0.20175  0.25055  0.92492  1.0000
  H   H569      1.0  0.24291  0.24885  0.66938  1.0000
  H   H570      1.0  0.22971  0.29783  0.92382  1.0000
  C   C332      1.0  0.98685  0.25892  0.65592  1.0000
  C   C333      1.0  0.27944  0.40382  0.96060  1.0000
  H   H571      1.0  0.27384  0.27195  0.99629  1.0000
  C   C334      1.0  0.97839  0.33872  0.82082  1.0000
  H   H572      1.0  0.13359  0.24150  0.91239  1.0000
  H   H573      1.0  0.24599  0.24933  0.96337  1.0000
  H   H574      1.0  0.09675  0.25454  0.86720  1.0000
  N   N19       1.0  0.27831  0.34216  0.59231  1.0000
  H   H575      1.0  0.97953  0.32694  0.80191  1.0000
  H   H576      1.0  0.34188  0.44675  0.00989  1.0000
  H   H577      1.0  0.24243  0.27946  0.97926  1.0000
  N   N20       1.0  0.98732  0.35793  0.79922  1.0000
  H   H578      1.0  0.13225  0.23418  0.76121  1.0000
  C   C335      1.0  0.00910  0.36270  0.79217  1.0000
  C   C336      1.0  0.98537  0.37303  0.82757  1.0000
  H   H579      1.0  0.23179  0.23982  0.86702  1.0000
  C   C337      1.0  0.25666  0.37583  0.53240  1.0000
  H   H580      1.0  0.97011  0.35978  0.67412  1.0000
  C   C338      1.0  0.99590  0.39428  0.81367  1.0000
  C   C339      1.0  0.01585  0.34574  0.78338  1.0000
  C   C340      1.0  0.03714  0.35305  0.76836  1.0000
  H   H581      1.0  0.16502  0.26913  0.90461  1.0000
  C   C341      1.0  0.43037  0.44444  0.02388  1.0000
  C   C342      1.0  0.99395  0.40808  0.84617  1.0000
  H   H582      1.0  0.99623  0.26578  0.62918  1.0000
  C   C343      1.0  0.28791  0.28432  0.99209  1.0000
  H   H583      1.0  0.01439  0.37343  0.76667  1.0000
  H   H584      1.0  0.01793  0.36972  0.82010  1.0000
  H   H585      1.0  0.99111  0.37154  0.85907  1.0000
  H   H586      1.0  0.99133  0.34675  0.71466  1.0000
  C   C344      1.0  0.96245  0.25542  0.57459  1.0000
  C   C345      1.0  0.11596  0.27057  0.54814  1.0000
  H   H587      1.0  0.02240  0.30841  0.99818  1.0000
  H   H588      1.0  0.24549  0.34600  0.54779  1.0000
  C   C346      1.0  0.09506  0.23975  0.85745  1.0000
  C   C347      1.0  0.96390  0.34521  0.68825  1.0000
  H   H589      1.0  0.98926  0.39723  0.78456  1.0000
  H   H590      1.0  0.01189  0.39791  0.80887  1.0000
  H   H591      1.0  0.01516  0.33741  0.81232  1.0000
  H   H592      1.0  0.00651  0.33562  0.76011  1.0000
  H   H593      1.0  0.04188  0.34076  0.76381  1.0000
  H   H594      1.0  0.03840  0.36083  0.73846  1.0000
  H   H595      1.0  0.04722  0.36280  0.79159  1.0000
  H   H596      1.0  0.98652  0.24403  0.57963  1.0000
  H   H597      1.0  0.35345  0.46485  0.97154  1.0000
  H   H598      1.0  0.10120  0.27130  0.55265  1.0000
  C   C348      1.0  0.24357  0.25377  0.87445  1.0000
  H   H599      1.0  0.23353  0.29731  0.52950  1.0000
  H   H600      1.0  0.29981  0.32924  0.60666  1.0000
  H   H601      1.0  0.00149  0.40666  0.87541  1.0000
  C   C349      1.0  0.97667  0.35858  0.75914  1.0000
  H   H602      1.0  0.13064  0.27041  0.84565  1.0000
  N   N21       1.0  0.33463  0.42916  0.92888  1.0000
  C   C350      1.0  0.31673  0.42009  0.95561  1.0000
  C   C351      1.0  0.35276  0.43585  0.95643  1.0000
  C   C352      1.0  0.33229  0.44573  0.90533  1.0000
  C   C353      1.0  0.33655  0.41501  0.89811  1.0000
  C   C354      1.0  0.33882  0.39681  0.91690  1.0000
  C   C355      1.0  0.29723  0.40835  0.93246  1.0000
  H   H603      1.0  0.99918  0.28467  0.69410  1.0000
  H   H604      1.0  0.98352  0.37284  0.74395  1.0000
  C   C356      1.0  0.33605  0.38152  0.88404  1.0000
  H   H605      1.0  0.19782  0.26179  0.90854  1.0000
  H   H606      1.0  0.97177  0.27102  0.57497  1.0000
  H   H607      1.0  0.35354  0.42367  0.97536  1.0000
  H   H608      1.0  0.32008  0.44034  0.88214  1.0000
  H   H609      1.0  0.32387  0.41057  0.87583  1.0000
  H   H610      1.0  0.34984  0.42181  0.87888  1.0000
  H   H611      1.0  0.32801  0.39025  0.94148  1.0000
  H   H612      1.0  0.35390  0.40069  0.93035  1.0000
  H   H613      1.0  0.29464  0.41621  0.90515  1.0000
  H   H614      1.0  0.29768  0.39450  0.92174  1.0000
  H   H615      1.0  0.35478  0.45083  0.85708  1.0000
  H   H616      1.0  0.30073  0.26670  0.96165  1.0000
  H   H617      1.0  0.35315  0.25200  0.00037  1.0000
  H   H618      1.0  0.25159  0.28679  0.54217  1.0000
  H   H619      1.0  0.97446  0.32589  0.01502  1.0000
  H   H620      1.0  0.33846  0.36899  0.89829  1.0000
  H   H621      1.0  0.32078  0.37648  0.87104  1.0000
  H   H622      1.0  0.34681  0.38728  0.85878  1.0000
  H   H623      1.0  0.29690  0.29071  0.81318  1.0000
  H   H624      1.0  0.29672  0.28600  0.02119  1.0000
  H   H625      1.0  0.96732  0.27402  0.01313  1.0000
  H   H626      1.0  0.12388  0.26727  0.71788  1.0000
  H   H627      1.0  0.96387  0.33456  0.66466  1.0000
  C   C357      1.0  0.42758  0.45748  0.95651  1.0000
  H   H628      1.0  0.07495  0.24298  0.80913  1.0000
  H   H629      1.0  0.31275  0.36575  0.63365  1.0000
  H   H630      1.0  0.41751  0.45122  0.65845  1.0000
  C   C358      1.0  0.22872  0.30777  0.98521  1.0000
  H   H631      1.0  0.19972  0.25160  0.56020  1.0000
  H   H632      1.0  0.01261  0.26875  0.69676  1.0000
  C   C359      1.0  0.27359  0.34567  0.63607  1.0000
  H   H633      1.0  0.20487  0.23564  0.00216  1.0000
  C   C360      1.0  0.22721  0.25595  0.61704  1.0000
  C   C361      1.0  0.23533  0.25891  0.66218  1.0000
  C   C362      1.0  0.25023  0.27929  0.66852  1.0000
  H   H634      1.0  0.33365  0.34606  0.63466  1.0000
  H   H635      1.0  0.32254  0.26373  0.91980  1.0000
  H   H636      1.0  0.21760  0.26864  0.99596  1.0000
  C   C363      1.0  0.12545  0.27100  0.59087  1.0000
  C   C364      1.0  0.20596  0.23786  0.76217  1.0000
  C   C365      1.0  0.27911  0.33376  0.67028  1.0000
  H   H637      1.0  0.24295  0.28984  0.66371  1.0000
  H   H638      1.0  0.25624  0.28081  0.70064  1.0000
  H   H639      1.0  0.26268  0.28245  0.64682  1.0000
  H   H640      1.0  0.96978  0.32885  0.73800  1.0000
  C   C366      1.0  0.99947  0.36156  0.94009  1.0000
  H   H641      1.0  0.00408  0.33623  0.92003  1.0000
  C   C367      1.0  0.31924  0.29728  0.95074  1.0000
  H   H642      1.0  0.31585  0.31031  0.94385  1.0000
  H   H643      1.0  0.19441  0.25066  0.64701  1.0000
  H   H644      1.0  0.12745  0.28461  0.60702  1.0000
  H   H645      1.0  0.25532  0.25091  0.89245  1.0000
  S   S80       1.0  0.30086  0.36810  0.00446  1.0000
  H   H646      1.0  0.29906  0.26885  0.87244  1.0000
  C   C368      1.0  0.29907  0.28062  0.95561  1.0000
  H   H647      1.0  0.45468  0.46961  0.70488  1.0000
  H   H648      1.0  0.27752  0.41724  0.96986  1.0000
  C   C369      1.0  0.97507  0.24453  0.55728  1.0000
  H   H649      1.0  0.31841  0.37184  0.58028  1.0000
  C   C370      1.0  0.37347  0.45824  0.01233  1.0000
  H   H650      1.0  0.97819  0.40517  0.85251  1.0000
  H   H651      1.0  0.11389  0.25655  0.53401  1.0000
  C   C371      1.0  0.34622  0.25346  0.97031  1.0000
  H   H652      1.0  0.26614  0.31116  0.59676  1.0000
  S   S81       1.0  0.26825  0.23460  0.72364  1.0000
  H   H653      1.0  0.30222  0.33978  0.55699  1.0000
  H   H654      1.0  0.16679  0.23624  0.88063  1.0000
  H   H655      1.0  0.31786  0.28740  0.79038  1.0000
  H   H656      1.0  0.25121  0.36190  0.59159  1.0000
  C   C372      1.0  0.96644  0.26065  0.65082  1.0000
  C   C373      1.0  0.96304  0.24490  0.92577  1.0000
  S   S82       1.0  0.39514  0.42579  0.97963  1.0000
  C   C374      1.0  0.11170  0.24557  0.78979  1.0000
  H   H657      1.0  0.22354  0.25668  0.68498  1.0000
  C   C375      1.0  0.97261  0.44659  0.62307  1.0000
  H   H658      1.0  0.26586  0.39462  0.94386  1.0000
  H   H659      1.0  0.35529  0.25131  0.94503  1.0000
  H   H660      1.0  0.33875  0.35112  0.58046  1.0000
  N   N22       1.0  0.33292  0.29485  0.91873  1.0000
  C   C376      1.0  0.27027  0.33551  0.71185  1.0000
  H   H661      1.0  0.98966  0.31540  0.98952  1.0000
  H   H662      1.0  0.12048  0.25751  0.91704  1.0000
  C   C377      1.0  0.35259  0.33168  0.91577  1.0000
  H   H663      1.0  0.34568  0.33281  0.88555  1.0000
  C   C378      1.0  0.30511  0.28090  0.81117  1.0000
  H   H664      1.0  0.14496  0.25590  0.84108  1.0000
  H   H665      1.0  0.24129  0.26591  0.81392  1.0000
  C   C379      1.0  0.33640  0.27632  0.92451  1.0000
  S   S83       1.0  0.99456  0.39470  0.96436  1.0000
  C   C380      1.0  0.97699  0.31236  0.01062  1.0000
  H   H666      1.0  0.29537  0.33881  0.67459  1.0000
  H   H667      1.0  0.38103  0.34670  0.94619  1.0000
  C   C381      1.0  0.31587  0.36032  0.60395  1.0000
  C   C382      1.0  0.22212  0.29179  0.95303  1.0000
  H   H668      1.0  0.34663  0.27517  0.90038  1.0000
  H   H669      1.0  0.98498  0.35369  0.95214  1.0000
  H   H670      1.0  0.00092  0.42310  0.83493  1.0000
  C   C383      1.0  0.03728  0.38185  0.90994  1.0000
  H   H671      1.0  0.05187  0.38978  0.89823  1.0000
  H   H672      1.0  0.28722  0.37230  0.57668  1.0000
  H   H673      1.0  0.24832  0.32139  0.58635  1.0000
  H   H674      1.0  0.28082  0.36110  0.64436  1.0000
  C   C384      1.0  0.15188  0.27115  0.91717  1.0000
  H   H675      1.0  0.26473  0.27725  0.83998  1.0000
  H   H676      1.0  0.14007  0.26967  0.58806  1.0000
  H   H677      1.0  0.22306  0.26846  0.60856  1.0000
  H   H678      1.0  0.35388  0.29636  0.59398  1.0000
  C   C385      1.0  0.99763  0.26935  0.69475  1.0000
  H   H679      1.0  0.98558  0.24377  0.65881  1.0000
  C   C386      1.0  0.02662  0.39167  0.92845  1.0000
  H   H680      1.0  0.03301  0.40715  0.93090  1.0000
  H   H681      1.0  0.45304  0.47474  0.65179  1.0000
  H   H682      1.0  0.31390  0.43133  0.97370  1.0000
  H   H683      1.0  0.36643  0.44058  0.93772  1.0000
  C   C387      1.0  0.29880  0.34184  0.58952  1.0000
  C   C388      1.0  0.41929  0.44365  0.98766  1.0000
  C   C389      1.0  0.25639  0.35937  0.56095  1.0000
  H   H684      1.0  0.28129  0.39602  0.98880  1.0000
  H   H685      1.0  0.20601  0.28777  0.94790  1.0000
  H   H686      1.0  0.36010  0.28398  0.97195  1.0000
  H   H687      1.0  0.33544  0.27449  0.99243  1.0000
  C   C390      1.0  0.44664  0.47186  0.96133  1.0000
  C   C391      1.0  0.00764  0.38162  0.94308  1.0000
  C   C392      1.0  0.27708  0.35812  0.56493  1.0000
  H   H688      1.0  0.24497  0.31296  0.99023  1.0000
  H   H689      1.0  0.25390  0.32959  0.70980  1.0000
  H   H690      1.0  0.97168  0.47225  0.95485  1.0000
  H   H691      1.0  0.29523  0.26713  0.79729  1.0000
  H   H692      1.0  0.37321  0.36117  0.91044  1.0000
  H   H693      1.0  0.15272  0.27066  0.95145  1.0000
  H   H694      1.0  0.27541  0.35076  0.72158  1.0000
  C   C393      1.0  0.13299  0.25536  0.90170  1.0000
  H   H695      1.0  0.36371  0.30906  0.90317  1.0000
  H   H696      1.0  0.36360  0.46546  0.90222  1.0000
  H   H697      1.0  0.27485  0.32723  0.73590  1.0000
  C   C394      1.0  0.35263  0.31120  0.92384  1.0000
  H   H698      1.0  0.98699  0.33877  0.84967  1.0000
  H   H699      1.0  0.35857  0.31159  0.95590  1.0000
  N   N23       1.0  0.21000  0.23739  0.60871  1.0000
  H   H700      1.0  0.28456  0.29747  0.98654  1.0000
  C   C395      1.0  0.20318  0.23843  0.56462  1.0000
  C   C396      1.0  0.12629  0.25347  0.71817  1.0000
  H   H701      1.0  0.38632  0.46370  0.99141  1.0000
  S   S84       1.0  0.97236  0.27934  0.79719  1.0000
  H   H702      1.0  0.32771  0.45494  0.92634  1.0000
  H   H703      1.0  0.98096  0.43684  0.62469  1.0000
  C   C397      1.0  0.35067  0.45893  0.88134  1.0000
  C   C398      1.0  0.34658  0.47539  0.85990  1.0000
  C   C399      1.0  0.13093  0.25606  0.85376  1.0000
  H   H704      1.0  0.11585  0.25882  0.60996  1.0000
  H   H705      1.0  0.97538  0.45405  0.59261  1.0000
  C   C400      1.0  0.19471  0.23303  0.89574  1.0000
  H   H706      1.0  0.41923  0.45707  0.92834  1.0000
  C   C401      1.0  0.43084  0.47924  0.68781  1.0000
  H   H707      1.0  0.11335  0.24213  0.70366  1.0000
  C   C402      1.0  0.07699  0.31889  0.00799  1.0000
  H   H708      1.0  0.97409  0.28182  0.96234  1.0000
  H   H709      1.0  0.28248  0.35716  0.53342  1.0000
  H   H710      1.0  0.96972  0.27625  0.64651  1.0000
  H   H711      1.0  0.16014  0.23652  0.67514  1.0000
  H   H712      1.0  0.14302  0.25934  0.77438  1.0000
  C   C403      1.0  0.07502  0.23242  0.83350  1.0000
  C   C404      1.0  0.26389  0.31786  0.53248  1.0000
  Fe  Fe40      1.0  0.28247  0.23399  0.66252  1.0000
  C   C405      1.0  0.19388  0.23605  0.63897  1.0000
  H   H713      1.0  0.06085  0.31452  0.00245  1.0000
  H   H714      1.0  0.26807  0.38964  0.54260  1.0000
  C   C406      1.0  0.21909  0.23387  0.99781  1.0000
  Fe  Fe41      1.0  0.37591  0.40118  0.02160  1.0000
  C   C407      1.0  0.12961  0.24782  0.76245  1.0000
  H   H715      1.0  0.23197  0.25034  0.53338  1.0000
  H   H716      1.0  0.16774  0.23293  0.60056  1.0000
  H   H717      1.0  0.31257  0.31464  0.52705  1.0000
  C   C408      1.0  0.08598  0.70630  0.35534  1.0000
  H   H718      1.0  0.97741  0.49062  0.04869  1.0000
  H   H719      1.0  0.96854  0.67165  0.29230  1.0000
  C   C409      1.0  0.98510  0.65119  0.49315  1.0000
  C   C410      1.0  0.98617  0.60052  0.26869  1.0000
  H   H720      1.0  0.97558  0.51837  0.08559  1.0000
  C   C411      1.0  0.00769  0.58664  0.31021  1.0000
  Fe  Fe42      1.0  0.02742  0.69468  0.37998  1.0000
  S   S85       1.0  0.99740  0.69331  0.39794  1.0000
  S   S86       1.0  0.03949  0.67111  0.37735  1.0000
  S   S87       1.0  0.99798  0.58460  0.43419  1.0000
  C   C412      1.0  0.12143  0.69693  0.36238  1.0000
  Fe  Fe43      1.0  0.00031  0.71365  0.34439  1.0000
  C   C413      1.0  0.00790  0.66382  0.28971  1.0000
  C   C414      1.0  0.02667  0.64733  0.39364  1.0000
  C   C415      1.0  0.03773  0.63583  0.40062  1.0000
  C   C416      1.0  0.02858  0.61678  0.41342  1.0000
  C   C417      1.0  0.00817  0.60878  0.41853  1.0000
  C   C418      1.0  0.99683  0.62010  0.41100  1.0000
  C   C419      1.0  0.00615  0.63951  0.39878  1.0000
  H   H721      1.0  0.05352  0.64166  0.39629  1.0000
  H   H722      1.0  0.98102  0.61386  0.41459  1.0000
  H   H723      1.0  0.99753  0.64833  0.39295  1.0000
  S   S88       1.0  0.97722  0.55550  0.03419  1.0000
  C   C420      1.0  0.02142  0.66312  0.51276  1.0000
  H   H724      1.0  0.06438  0.70056  0.28206  1.0000
  H   H725      1.0  0.03706  0.71066  0.51730  1.0000
  H   H726      1.0  0.99979  0.67065  0.26969  1.0000
  H   H727      1.0  0.98258  0.62233  0.20621  1.0000
  C   C421      1.0  0.96847  0.61505  0.22257  1.0000
  H   H728      1.0  0.01883  0.52219  0.07861  1.0000
  C   C422      1.0  0.98766  0.51330  0.09399  1.0000
  H   H729      1.0  0.00156  0.57292  0.29295  1.0000
  H   H730      1.0  0.05907  0.67373  0.46612  1.0000
  C   C423      1.0  0.07395  0.67307  0.47052  1.0000
  H   H731      1.0  0.14300  0.68444  0.34751  1.0000
  H   H732      1.0  0.11806  0.69788  0.32906  1.0000
  Fe  Fe44      1.0  0.01431  0.71979  0.43491  1.0000
  C   C424      1.0  0.14224  0.69662  0.36569  1.0000
  H   H733      1.0  0.12727  0.71484  0.41715  1.0000
  H   H734      1.0  0.08060  0.68026  0.49995  1.0000
  H   H735      1.0  0.98900  0.66494  0.47555  1.0000
  H   H736      1.0  0.15323  0.71016  0.35325  1.0000
  H   H737      1.0  0.01321  0.63752  0.29369  1.0000
  H   H738      1.0  0.98824  0.64118  0.47194  1.0000
  H   H739      1.0  0.00532  0.64276  0.24382  1.0000
  C   C425      1.0  0.99245  0.59610  0.31249  1.0000
  H   H740      1.0  0.07981  0.67445  0.40599  1.0000
  H   H741      1.0  0.01170  0.58345  0.34201  1.0000
  H   H742      1.0  0.08445  0.71333  0.24823  1.0000
  H   H743      1.0  0.97169  0.48923  0.16940  1.0000
  C   C426      1.0  0.00272  0.64289  0.27740  1.0000
  H   H744      1.0  0.02377  0.67674  0.49575  1.0000
  H   H745      1.0  0.00948  0.54134  0.07948  1.0000
  N   N24       1.0  0.97232  0.61128  0.26726  1.0000
  H   H746      1.0  0.99911  0.60936  0.33076  1.0000
  H   H747      1.0  0.02129  0.59637  0.29493  1.0000
  S   S89       1.0  0.00378  0.72251  0.49972  1.0000
  C   C427      1.0  0.98117  0.63034  0.28899  1.0000
  N   N25       1.0  0.09962  0.71465  0.39167  1.0000
  S   S90       1.0  0.97516  0.71259  0.29965  1.0000
  H   H748      1.0  0.97804  0.54935  0.24002  1.0000
  H   H749      1.0  0.12964  0.72733  0.36957  1.0000
  C   C428      1.0  0.09200  0.71717  0.31359  1.0000
  Fe  Fe45      1.0  0.96555  0.56673  0.43295  1.0000
  H   H750      1.0  0.97961  0.58606  0.32951  1.0000
  N   N26       1.0  0.96343  0.64352  0.50387  1.0000
  H   H751      1.0  0.08302  0.70679  0.03717  1.0000
  S   S91       1.0  0.45991  0.50364  0.52223  1.0000
  H   H752      1.0  0.00415  0.66486  0.32248  1.0000
  H   H753      1.0  0.99970  0.60827  0.25068  1.0000
  H   H754      1.0  0.45944  0.50187  0.37075  1.0000
  H   H755      1.0  0.98085  0.62836  0.32318  1.0000
  H   H756      1.0  0.97196  0.63908  0.28283  1.0000
  S   S92       1.0  0.04418  0.71959  0.42072  1.0000
  C   C429      1.0  0.08053  0.70491  0.27741  1.0000
  H   H757      1.0  0.11104  0.68296  0.37371  1.0000
  H   H758      1.0  0.02396  0.67189  0.28589  1.0000
  H   H759      1.0  0.97925  0.58641  0.25325  1.0000
  H   H760      1.0  0.14608  0.69472  0.39842  1.0000
  H   H761      1.0  0.03738  0.60808  0.41901  1.0000
  H   H762      1.0  0.08415  0.69184  0.27447  1.0000
  H   H763      1.0  0.08391  0.69108  0.35029  1.0000
  S   S93       1.0  0.02937  0.71305  0.32381  1.0000
  H   H764      1.0  0.96761  0.65325  0.41953  1.0000
  H   H765      1.0  0.99079  0.51540  0.12766  1.0000
  H   H766      1.0  0.09912  0.71070  0.45832  1.0000
  H   H767      1.0  0.10801  0.72160  0.30791  1.0000
  H   H768      1.0  0.07554  0.70541  0.43462  1.0000
  H   H769      1.0  0.02425  0.65289  0.49155  1.0000
  H   H770      1.0  0.10145  0.68103  0.43916  1.0000
  H   H771      1.0  0.00308  0.52480  0.03680  1.0000
  C   C430      1.0  0.08703  0.68258  0.43389  1.0000
  C   C431      1.0  0.00592  0.52613  0.07074  1.0000
  S   S94       1.0  0.96927  0.55124  0.15359  1.0000
  H   H772      1.0  0.96654  0.60934  0.13535  1.0000
  C   C432      1.0  0.11999  0.71423  0.38634  1.0000
  C   C433      1.0  0.09013  0.70412  0.43053  1.0000
  H   H773      1.0  0.07217  0.65772  0.47268  1.0000
  H   H774      1.0  0.07094  0.70604  0.36194  1.0000
  C   C434      1.0  0.98189  0.49190  0.08196  1.0000
  H   H775      1.0  0.99569  0.48884  0.08349  1.0000
  H   H776      1.0  0.96540  0.58780  0.19303  1.0000
  H   H777      1.0  0.08850  0.73035  0.31360  1.0000
  H   H778      1.0  0.45957  0.49288  0.42288  1.0000
  H   H779      1.0  0.97604  0.61325  0.51868  1.0000
  C   C435      1.0  0.96271  0.54775  0.23724  1.0000
  Fe  Fe46      1.0  0.03203  0.70741  0.73452  1.0000
  S   S95       1.0  0.04083  0.70499  0.66811  1.0000
  Fe  Fe47      1.0  0.02714  0.68422  0.81632  1.0000
  S   S96       1.0  0.02472  0.70828  0.85300  1.0000
  S   S97       1.0  0.02662  0.65583  0.84396  1.0000
  Fe  Fe48      1.0  0.00482  0.71042  0.80099  1.0000
  C   C436      1.0  0.01320  0.71444  0.62180  1.0000
  S   S98       1.0  0.00614  0.68537  0.76586  1.0000
  S   S99       1.0  0.05349  0.70425  0.78217  1.0000
  C   C437      1.0  0.04734  0.70475  0.96069  1.0000
  C   C438      1.0  0.97674  0.68524  0.99420  1.0000
  C   C439      1.0  0.08468  0.69193  0.89463  1.0000
  H   H780      1.0  0.03466  0.69511  0.94199  1.0000
  H   H781      1.0  0.01778  0.65949  0.67142  1.0000
  C   C440      1.0  0.98321  0.63463  0.92997  1.0000
  H   H782      1.0  0.04899  0.66048  0.92442  1.0000
  H   H783      1.0  0.96794  0.61686  0.66487  1.0000
  C   C441      1.0  0.00944  0.64073  0.87993  1.0000
  C   C442      1.0  0.00961  0.62236  0.88889  1.0000
  C   C443      1.0  0.99666  0.61017  0.91820  1.0000
  C   C444      1.0  0.98342  0.61629  0.93909  1.0000
  H   H784      1.0  0.99931  0.67710  0.96550  1.0000
  C   C445      1.0  0.99616  0.64681  0.90074  1.0000
  H   H785      1.0  0.01989  0.61753  0.87319  1.0000
  H   H786      1.0  0.99703  0.59613  0.92484  1.0000
  H   H787      1.0  0.00976  0.64361  0.71519  1.0000
  H   H788      1.0  0.99594  0.66093  0.89442  1.0000
  C   C446      1.0  0.02966  0.70912  0.62178  1.0000
  H   H789      1.0  0.98552  0.65868  0.69602  1.0000
  C   C447      1.0  0.03804  0.70758  0.58384  1.0000
  C   C448      1.0  0.06244  0.68101  0.97482  1.0000
  H   H790      1.0  0.05074  0.70340  0.58355  1.0000
  H   H791      1.0  0.00654  0.71560  0.65077  1.0000
  H   H792      1.0  0.96761  0.63742  0.56829  1.0000
  H   H793      1.0  0.98395  0.64977  0.64429  1.0000
  H   H794      1.0  0.07138  0.68038  0.83511  1.0000
  C   C449      1.0  0.04333  0.64514  0.98194  1.0000
  H   H795      1.0  0.03218  0.66620  0.53894  1.0000
  H   H796      1.0  0.05399  0.68932  0.89268  1.0000
  H   H797      1.0  0.97978  0.64626  0.76408  1.0000
  H   H798      1.0  0.08862  0.70513  0.83339  1.0000
  C   C450      1.0  0.96481  0.67240  0.54982  1.0000
  C   C451      1.0  0.96950  0.62730  0.69016  1.0000
  H   H799      1.0  0.98073  0.68076  0.54577  1.0000
  H   H800      1.0  0.09932  0.70207  0.90528  1.0000
  H   H801      1.0  0.00769  0.63387  0.66347  1.0000
  C   C452      1.0  0.99354  0.67769  0.99678  1.0000
  C   C453      1.0  0.00652  0.64572  0.68218  1.0000
  C   C454      1.0  0.00556  0.71864  0.58419  1.0000
  H   H802      1.0  0.07635  0.67811  0.97519  1.0000
  H   H803      1.0  0.99894  0.64077  0.54461  1.0000
  H   H804      1.0  0.44651  0.53204  0.58507  1.0000
  C   C455      1.0  0.96417  0.63915  0.77318  1.0000
  H   H805      1.0  0.97510  0.62140  0.71704  1.0000
  H   H806      1.0  0.97494  0.60954  0.59519  1.0000
  H   H807      1.0  0.05716  0.64217  0.98186  1.0000
  C   C456      1.0  0.04930  0.72560  0.94977  1.0000
  C   C457      1.0  0.98597  0.64654  0.67733  1.0000
  C   C458      1.0  0.00039  0.65449  0.52913  1.0000
  S   S100      1.0  0.97496  0.70911  0.82134  1.0000
  C   C459      1.0  0.08553  0.69077  0.84766  1.0000
  C   C460      1.0  0.06800  0.69881  0.90775  1.0000
  H   H808      1.0  0.96249  0.66382  0.57872  1.0000
  C   C461      1.0  0.04572  0.66318  0.95657  1.0000
  H   H809      1.0  0.09752  0.68578  0.83915  1.0000
  C   C462      1.0  0.01405  0.71725  0.54622  1.0000
  H   H810      1.0  0.43362  0.52590  0.63334  1.0000
  H   H811      1.0  0.08240  0.67746  0.90723  1.0000
  H   H812      1.0  0.03935  0.64675  0.01430  1.0000
  H   H813      1.0  0.09667  0.71079  0.96818  1.0000
  S   S101      1.0  0.96700  0.60199  0.97724  1.0000
  H   H814      1.0  0.97328  0.70525  0.73181  1.0000
  H   H815      1.0  0.45045  0.50329  0.61559  1.0000
  H   H816      1.0  0.05890  0.68163  0.00798  1.0000
  C   C463      1.0  0.08307  0.71928  0.01830  1.0000
  H   H817      1.0  0.45320  0.51320  0.75847  1.0000
  H   H818      1.0  0.45847  0.50720  0.83246  1.0000
  H   H819      1.0  0.08845  0.72705  0.72024  1.0000
  H   H820      1.0  0.44956  0.51609  0.69222  1.0000
  C   C464      1.0  0.08372  0.71507  0.97157  1.0000
  C   C465      1.0  0.45917  0.51756  0.62880  1.0000
  H   H821      1.0  0.99303  0.72308  0.58447  1.0000
  N   N27       1.0  0.06539  0.69992  0.95374  1.0000
  H   H822      1.0  0.98269  0.69979  0.98010  1.0000
  C   C466      1.0  0.44843  0.53119  0.61911  1.0000
  H   H823      1.0  0.97297  0.63941  0.94580  1.0000
  H   H824      1.0  0.96301  0.66443  0.80405  1.0000
  H   H825      1.0  0.98837  0.66310  0.01088  1.0000
  H   H826      1.0  0.03135  0.66507  0.95653  1.0000
  H   H827      1.0  0.04251  0.70191  0.99337  1.0000
  H   H828      1.0  0.03132  0.63262  0.96825  1.0000
  Fe  Fe49      1.0  0.04962  0.72884  0.81537  1.0000
  H   H829      1.0  0.07126  0.71314  0.89305  1.0000
  H   H830      1.0  0.01764  0.71826  0.93942  1.0000
  C   C467      1.0  0.03032  0.71166  0.54624  1.0000
  H   H831      1.0  0.96320  0.58674  0.57007  1.0000
  H   H832      1.0  0.45720  0.54584  0.63068  1.0000
  C   C468      1.0  0.46020  0.50276  0.76651  1.0000
  H   H833      1.0  0.96518  0.67070  0.93710  1.0000
  H   H834      1.0  0.99880  0.66417  0.55307  1.0000
  H   H835      1.0  0.06982  0.72235  0.02616  1.0000
  H   H836      1.0  0.44871  0.48816  0.76941  1.0000
  H   H837      1.0  0.00575  0.68740  0.01629  1.0000
  H   H838      1.0  0.42669  0.48670  0.66154  1.0000
  H   H839      1.0  0.97226  0.64961  0.83549  1.0000
  C   C469      1.0  0.03000  0.72855  0.95766  1.0000
  H   H840      1.0  0.08754  0.72875  0.95367  1.0000
  H   H841      1.0  0.05306  0.72890  0.91685  1.0000
  H   H842      1.0  0.02636  0.72663  0.99102  1.0000
  H   H843      1.0  0.35987  0.48455  0.84281  1.0000
  H   H844      1.0  0.34305  0.48446  0.88301  1.0000
  H   H845      1.0  0.42867  0.48599  0.71655  1.0000
  H   H846      1.0  0.96213  0.62432  0.78225  1.0000
  S   S102      1.0  0.96252  0.50481  0.97890  1.0000
  H   H847      1.0  0.97226  0.68653  0.02626  1.0000
  H   H848      1.0  0.45275  0.48232  0.93705  1.0000
  Fe  Fe50      1.0  0.19351  0.87675  0.24619  1.0000
  S   S103      1.0  0.16825  0.88463  0.26707  1.0000
  S   S104      1.0  0.19689  0.86705  0.18097  1.0000
  Fe  Fe51      1.0  0.21172  0.88045  0.33399  1.0000
  S   S105      1.0  0.18715  0.88761  0.36056  1.0000
  S   S106      1.0  0.23651  0.87843  0.37580  1.0000
  Fe  Fe52      1.0  0.16608  0.86425  0.32057  1.0000
  S   S107      1.0  0.13551  0.84614  0.34648  1.0000
  Fe  Fe53      1.0  0.19138  0.90697  0.30532  1.0000
  S   S108      1.0  0.19520  0.93742  0.32042  1.0000
  S   S109      1.0  0.19043  0.85534  0.29810  1.0000
  S   S110      1.0  0.21689  0.90084  0.28027  1.0000
  H   H849      1.0  0.07806  0.77974  0.16878  1.0000
  S   S111      1.0  0.30516  0.94782  0.46461  1.0000
  S   S112      1.0  0.36016  0.96906  0.49631  1.0000
  C   C470      1.0  0.23161  0.94310  0.04415  1.0000
  C   C471      1.0  0.24557  0.92984  0.50422  1.0000
  S   S113      1.0  0.07449  0.75866  0.34050  1.0000
  C   C472      1.0  0.28358  0.92284  0.05831  1.0000
  H   H850      1.0  0.07417  0.77347  0.22284  1.0000
  H   H851      1.0  0.23808  0.94424  0.31334  1.0000
  C   C473      1.0  0.45581  0.95582  0.51676  1.0000
  H   H852      1.0  0.44789  0.95003  0.41397  1.0000
  S   S114      1.0  0.39715  0.95525  0.03610  1.0000
  C   C474      1.0  0.27897  0.96834  0.17674  1.0000
  C   C475      1.0  0.43377  0.95783  0.06452  1.0000
  C   C476      1.0  0.20559  0.95477  0.28182  1.0000
  C   C477      1.0  0.20426  0.94970  0.24008  1.0000
  C   C478      1.0  0.23051  0.92216  0.04028  1.0000
  C   C479      1.0  0.21518  0.97405  0.29313  1.0000
  H   H853      1.0  0.19679  0.93486  0.23119  1.0000
  H   H854      1.0  0.19975  0.93570  0.04428  1.0000
  C   C480      1.0  0.21004  0.90878  0.49524  1.0000
  C   C481      1.0  0.11917  0.82152  0.34637  1.0000
  C   C482      1.0  0.10018  0.81656  0.36303  1.0000
  C   C483      1.0  0.08640  0.79744  0.36215  1.0000
  C   C484      1.0  0.09136  0.78297  0.34421  1.0000
  C   C485      1.0  0.11044  0.78787  0.32805  1.0000
  C   C486      1.0  0.12434  0.80692  0.32970  1.0000
  H   H855      1.0  0.09602  0.82765  0.37642  1.0000
  H   H856      1.0  0.07184  0.79397  0.37478  1.0000
  H   H857      1.0  0.11456  0.77681  0.31444  1.0000
  H   H858      1.0  0.13908  0.81030  0.31828  1.0000
  C   C487      1.0  0.25610  0.89798  0.39860  1.0000
  C   C488      1.0  0.26968  0.89416  0.42529  1.0000
  C   C489      1.0  0.28512  0.90920  0.44490  1.0000
  C   C490      1.0  0.28708  0.92829  0.43827  1.0000
  C   C491      1.0  0.27373  0.93214  0.41098  1.0000
  C   C492      1.0  0.25827  0.91709  0.39137  1.0000
  H   H859      1.0  0.26820  0.87944  0.43097  1.0000
  H   H860      1.0  0.29532  0.90599  0.46558  1.0000
  H   H861      1.0  0.27518  0.94685  0.40565  1.0000
  H   H862      1.0  0.24793  0.92020  0.37092  1.0000
  C   C493      1.0  0.29626  0.95541  0.22684  1.0000
  C   C494      1.0  0.18076  0.88679  0.05453  1.0000
  H   H863      1.0  0.42834  0.89486  0.06245  1.0000
  C   C495      1.0  0.42853  0.97379  0.52620  1.0000
  H   H864      1.0  0.12625  0.77423  0.40301  1.0000
  H   H865      1.0  0.06653  0.79194  0.20155  1.0000
  H   H866      1.0  0.25695  0.95478  0.35193  1.0000
  C   C496      1.0  0.19133  0.86514  0.09670  1.0000
  C   C497      1.0  0.19032  0.87491  0.13294  1.0000
  C   C498      1.0  0.18431  0.89056  0.12986  1.0000
  C   C499      1.0  0.17963  0.89648  0.09084  1.0000
  H   H867      1.0  0.19583  0.85292  0.09878  1.0000
  H   H868      1.0  0.18340  0.89818  0.15748  1.0000
  H   H869      1.0  0.17500  0.90861  0.08879  1.0000
  H   H870      1.0  0.26675  0.97428  0.24508  1.0000
  C   C500      1.0  0.25270  0.89802  0.19912  1.0000
  H   H871      1.0  0.24939  0.93228  0.18730  1.0000
  C   C501      1.0  0.21293  0.94381  0.06349  1.0000
  H   H872      1.0  0.25179  0.88567  0.21945  1.0000
  H   H873      1.0  0.23740  0.89703  0.19190  1.0000
  H   H874      1.0  0.27931  0.91688  0.22786  1.0000
  H   H875      1.0  0.45833  0.97363  0.28757  1.0000
  C   C502      1.0  0.11698  0.76784  0.43027  1.0000
  C   C503      1.0  0.11315  0.74641  0.43395  1.0000
  H   H876      1.0  0.23927  0.89109  0.05649  1.0000
  C   C504      1.0  0.25986  0.96768  0.15389  1.0000
  H   H877      1.0  0.27157  0.93277  0.16436  1.0000
  H   H878      1.0  0.43015  0.93000  0.50668  1.0000
  C   C505      1.0  0.22414  0.93833  0.45519  1.0000
  C   C506      1.0  0.18639  0.87090  0.05778  1.0000
  C   C507      1.0  0.25259  0.95588  0.31931  1.0000
  H   H879      1.0  0.20864  0.93675  0.44745  1.0000
  H   H880      1.0  0.22863  0.93091  0.43004  1.0000
  C   C508      1.0  0.45353  0.95934  0.06071  1.0000
  H   H881      1.0  0.10057  0.73916  0.06503  1.0000
  H   H882      1.0  0.21563  0.90033  0.43257  1.0000
  H   H883      1.0  0.11422  0.86011  0.07856  1.0000
  H   H884      1.0  0.21633  0.96999  0.42002  1.0000
  H   H885      1.0  0.25270  0.95390  0.13738  1.0000
  C   C509      1.0  0.23760  0.95989  0.45055  1.0000
  H   H886      1.0  0.25113  0.96999  0.31486  1.0000
  N   N28       1.0  0.12207  0.83511  0.19155  1.0000
  C   C510      1.0  0.11917  0.84308  0.23254  1.0000
  C   C511      1.0  0.14106  0.83132  0.19235  1.0000
  C   C512      1.0  0.12402  0.85035  0.15897  1.0000
  C   C513      1.0  0.10463  0.81731  0.17971  1.0000
  C   C514      1.0  0.10064  0.84845  0.23564  1.0000
  C   C515      1.0  0.13109  0.84688  0.11575  1.0000
  C   C516      1.0  0.14658  0.82331  0.23309  1.0000
  C   C517      1.0  0.16356  0.81635  0.22698  1.0000
  C   C518      1.0  0.09869  0.85522  0.27914  1.0000
  H   H887      1.0  0.13225  0.85616  0.23998  1.0000
  H   H888      1.0  0.11850  0.83307  0.25846  1.0000
  H   H889      1.0  0.14106  0.82153  0.16668  1.0000
  H   H890      1.0  0.15390  0.84493  0.18667  1.0000
  H   H891      1.0  0.13466  0.86458  0.16972  1.0000
  H   H892      1.0  0.10969  0.85217  0.15383  1.0000
  H   H893      1.0  0.09154  0.82108  0.17232  1.0000
  H   H894      1.0  0.10757  0.81117  0.15061  1.0000
  H   H895      1.0  0.10158  0.86037  0.21409  1.0000
  H   H896      1.0  0.08697  0.83593  0.22866  1.0000
  H   H897      1.0  0.14672  0.84806  0.11734  1.0000
  H   H898      1.0  0.15132  0.83477  0.25684  1.0000
  H   H899      1.0  0.13409  0.81120  0.24560  1.0000
  H   H900      1.0  0.16759  0.81137  0.25706  1.0000
  H   H901      1.0  0.15917  0.80420  0.20490  1.0000
  H   H902      1.0  0.17676  0.82817  0.21515  1.0000
  H   H903      1.0  0.11225  0.86749  0.28837  1.0000
  H   H904      1.0  0.08593  0.85990  0.28010  1.0000
  H   H905      1.0  0.09616  0.84334  0.30180  1.0000
  H   H906      1.0  0.13624  0.85987  0.05451  1.0000
  N   N29       1.0  0.27608  0.95407  0.21186  1.0000
  H   H907      1.0  0.31377  0.93254  0.08129  1.0000
  H   H908      1.0  0.29518  0.94586  0.25393  1.0000
  H   H909      1.0  0.08638  0.73601  0.39718  1.0000
  H   H910      1.0  0.10842  0.74381  0.36812  1.0000
  H   H911      1.0  0.24924  0.96939  0.17608  1.0000
  H   H912      1.0  0.25302  0.96113  0.44510  1.0000
  H   H913      1.0  0.10464  0.74122  0.46267  1.0000
  H   H914      1.0  0.42761  0.95707  0.09496  1.0000
  C   C519      1.0  0.37022  0.96586  0.12808  1.0000
  H   H915      1.0  0.20163  0.86570  0.44306  1.0000
  H   H916      1.0  0.26900  0.94311  0.06505  1.0000
  H   H917      1.0  0.33573  0.96735  0.25171  1.0000
  H   H918      1.0  0.29691  0.93665  0.11632  1.0000
  C   C520      1.0  0.30077  0.93681  0.08330  1.0000
  H   H919      1.0  0.37308  0.95776  0.15480  1.0000
  H   H920      1.0  0.21400  0.95895  0.06545  1.0000
  H   H921      1.0  0.25679  0.91665  0.25059  1.0000
  H   H922      1.0  0.18683  0.86297  0.03034  1.0000
  H   H923      1.0  0.19513  0.90885  0.48726  1.0000
  H   H924      1.0  0.42413  0.97841  0.40761  1.0000
  H   H925      1.0  0.22488  0.91443  0.06990  1.0000
  H   H926      1.0  0.12486  0.77542  0.45839  1.0000
  H   H927      1.0  0.28910  0.96642  0.15323  1.0000
  H   H928      1.0  0.09732  0.80523  0.24324  1.0000
  C   C521      1.0  0.26419  0.95866  0.24521  1.0000
  H   H929      1.0  0.21033  0.96010  0.17737  1.0000
  C   C522      1.0  0.42159  0.95410  0.51793  1.0000
  H   H930      1.0  0.13824  0.87656  0.09547  1.0000
  C   C523      1.0  0.21191  0.96398  0.20971  1.0000
  H   H931      1.0  0.26001  0.89687  0.16999  1.0000
  H   H932      1.0  0.45234  0.91260  0.07457  1.0000
  H   H933      1.0  0.12203  0.83252  0.10352  1.0000
  H   H934      1.0  0.24420  0.95194  0.06361  1.0000
  C   C524      1.0  0.26806  0.95384  0.29060  1.0000
  H   H935      1.0  0.12761  0.74476  0.43727  1.0000
  C   C525      1.0  0.07803  0.78554  0.20021  1.0000
  H   H936      1.0  0.21105  0.93763  0.09525  1.0000
  H   H937      1.0  0.36569  0.95603  0.10115  1.0000
  C   C526      1.0  0.12983  0.86178  0.08428  1.0000
  H   H938      1.0  0.22845  0.89314  0.47356  1.0000
  H   H939      1.0  0.25013  0.92284  0.47844  1.0000
  H   H940      1.0  0.24806  0.95150  0.23859  1.0000
  H   H941      1.0  0.28796  0.97101  0.51705  1.0000
  C   C527      1.0  0.26451  0.92734  0.06237  1.0000
  C   C528      1.0  0.21449  0.89503  0.46485  1.0000
  H   H942      1.0  0.22965  0.96071  0.38528  1.0000
  H   H943      1.0  0.28088  0.90811  0.07020  1.0000
  H   H944      1.0  0.18374  0.87594  0.45620  1.0000
  C   C529      1.0  0.09831  0.80048  0.21135  1.0000
  H   H945      1.0  0.10886  0.79298  0.21086  1.0000
  S   S115      1.0  0.39598  0.94009  0.51314  1.0000
  H   H946      1.0  0.30354  0.94998  0.20261  1.0000
  S   S116      1.0  0.01533  0.74047  0.38254  1.0000
  N   N30       1.0  0.22488  0.92919  0.49682  1.0000
  C   C530      1.0  0.19814  0.87510  0.46544  1.0000
  H   H947      1.0  0.28269  0.96385  0.30163  1.0000
  H   H948      1.0  0.30487  0.95158  0.07062  1.0000
  C   C531      1.0  0.43535  0.94522  0.51309  1.0000
  C   C532      1.0  0.26432  0.91684  0.22123  1.0000
  H   H949      1.0  0.19695  0.86848  0.49667  1.0000
  H   H950      1.0  0.35799  0.97059  0.13601  1.0000
  H   H951      1.0  0.25802  0.92151  0.09289  1.0000
  H   H952      1.0  0.26786  0.93912  0.29445  1.0000
  Fe  Fe54      1.0  0.04442  0.73837  0.36555  1.0000
  H   H953      1.0  0.21618  0.97803  0.32538  1.0000
  H   H954      1.0  0.10282  0.77016  0.42705  1.0000
  C   C533      1.0  0.26504  0.93430  0.19432  1.0000
  Fe  Fe55      1.0  0.32934  0.94913  0.51243  1.0000
  C   C534      1.0  0.10118  0.73661  0.03141  1.0000
  H   H955      1.0  0.32166  0.96847  0.29662  1.0000
  H   H956      1.0  0.20931  0.94748  0.51600  1.0000
  H   H957      1.0  0.25631  0.94490  0.50378  1.0000
  H   H958      1.0  0.45629  0.97986  0.43646  1.0000
  C   C535      1.0  0.32751  0.97537  0.26655  1.0000
  C   C536      1.0  0.46057  0.92847  0.41503  1.0000
  H   H959      1.0  0.23766  0.96847  0.47822  1.0000
  C   C537      1.0  0.31072  0.97589  0.23826  1.0000
  C   C538      1.0  0.23093  0.96915  0.41386  1.0000
  H   H960      1.0  0.45370  0.92251  0.44505  1.0000
  H   H961      1.0  0.44735  0.97476  0.35591  1.0000
  H   H962      1.0  0.40071  0.97746  0.11266  1.0000
  H   H963      1.0  0.45096  0.91991  0.38969  1.0000
  C   C539      1.0  0.44162  0.90604  0.04907  1.0000
  H   H964      1.0  0.27080  0.91010  0.52196  1.0000
  H   H965      1.0  0.33905  0.98075  0.07570  1.0000
  C   C540      1.0  0.10133  0.73529  0.39588  1.0000
  H   H966      1.0  0.46049  0.95069  0.34628  1.0000
  N   N31       1.0  0.24926  0.91948  0.02839  1.0000
  H   H967      1.0  0.45413  0.88538  0.03261  1.0000
  C   C541      1.0  0.42191  0.95713  0.02931  1.0000
  H   H968      1.0  0.20845  0.90161  0.52582  1.0000
  H   H969      1.0  0.43707  0.91729  0.03447  1.0000
  C   C542      1.0  0.40188  0.93349  0.62454  1.0000
  C   C543      1.0  0.01985  0.76347  0.68125  1.0000
  S   S117      1.0  0.07726  0.75048  0.84779  1.0000
  Fe  Fe56      1.0  0.17908  0.88623  0.94042  1.0000
  S   S118      1.0  0.17745  0.85750  0.91656  1.0000
  H   H970      1.0  0.26421  0.92048  0.97099  1.0000
  Fe  Fe57      1.0  0.18652  0.90526  0.85332  1.0000
  S   S119      1.0  0.18504  0.87789  0.82338  1.0000
  S   S120      1.0  0.19102  0.93426  0.82214  1.0000
  Fe  Fe58      1.0  0.15893  0.86191  0.86361  1.0000
  S   S121      1.0  0.13046  0.84073  0.83256  1.0000
  Fe  Fe59      1.0  0.20342  0.87547  0.87814  1.0000
  S   S122      1.0  0.22903  0.86659  0.86538  1.0000
  S   S123      1.0  0.15895  0.88977  0.88982  1.0000
  S   S124      1.0  0.20652  0.90370  0.90568  1.0000
  C   C544      1.0  0.45138  0.94676  0.65411  1.0000
  S   S125      1.0  0.32868  0.96478  0.57124  1.0000
  H   H971      1.0  0.26001  0.95722  0.92724  1.0000
  C   C545      1.0  0.28168  0.92983  0.66132  1.0000
  C   C546      1.0  0.44283  0.96156  0.63719  1.0000
  H   H972      1.0  0.45592  0.96021  0.95591  1.0000
  Fe  Fe60      1.0  0.34209  0.94571  0.60329  1.0000
  S   S126      1.0  0.33192  0.93308  0.66709  1.0000
  S   S127      1.0  0.37327  0.96535  0.59297  1.0000
  Fe  Fe61      1.0  0.33395  0.92844  0.95257  1.0000
  S   S128      1.0  0.31290  0.89767  0.95398  1.0000
  Fe  Fe62      1.0  0.37396  0.95460  0.98706  1.0000
  C   C547      1.0  0.38284  0.91610  0.63086  1.0000
  S   S129      1.0  0.32856  0.95200  0.91783  1.0000
  S   S130      1.0  0.36506  0.93602  0.93054  1.0000
  H   H973      1.0  0.24342  0.92709  0.96612  1.0000
  H   H974      1.0  0.06732  0.74217  0.68712  1.0000
  C   C548      1.0  0.09475  0.80236  0.70120  1.0000
  H   H975      1.0  0.18028  0.89463  0.74087  1.0000
  C   C549      1.0  0.22908  0.95129  0.72459  1.0000
  C   C550      1.0  0.07290  0.76191  0.62011  1.0000
  C   C551      1.0  0.34381  0.94427  0.71345  1.0000
  C   C552      1.0  0.33712  0.93505  0.75137  1.0000
  C   C553      1.0  0.34553  0.94365  0.78913  1.0000
  C   C554      1.0  0.36111  0.96147  0.78927  1.0000
  H   H976      1.0  0.09197  0.79849  0.63497  1.0000
  C   C555      1.0  0.35943  0.96212  0.71354  1.0000
  H   H977      1.0  0.32553  0.92104  0.75142  1.0000
  H   H978      1.0  0.34018  0.93639  0.81812  1.0000
  H   H979      1.0  0.23386  0.89324  0.96138  1.0000
  C   C556      1.0  0.25154  0.87604  0.89303  1.0000
  C   C557      1.0  0.26087  0.89571  0.90149  1.0000
  C   C558      1.0  0.28008  0.90278  0.91910  1.0000
  C   C559      1.0  0.28938  0.89005  0.93025  1.0000
  C   C560      1.0  0.27972  0.87043  0.92279  1.0000
  C   C561      1.0  0.26116  0.86355  0.90337  1.0000
  H   H980      1.0  0.25359  0.90548  0.89328  1.0000
  H   H981      1.0  0.28767  0.91798  0.92432  1.0000
  H   H982      1.0  0.28685  0.86053  0.93121  1.0000
  H   H983      1.0  0.25416  0.84840  0.89660  1.0000
  C   C562      1.0  0.20629  0.94761  0.78122  1.0000
  C   C563      1.0  0.21770  0.94026  0.75739  1.0000
  H   H984      1.0  0.36478  0.96940  0.68461  1.0000
  C   C564      1.0  0.20646  0.96605  0.77172  1.0000
  H   H985      1.0  0.21760  0.92606  0.76403  1.0000
  C   C565      1.0  0.43004  0.95807  0.99015  1.0000
  H   H986      1.0  0.10174  0.93413  0.68496  1.0000
  C   C566      1.0  0.09179  0.77563  0.84278  1.0000
  C   C567      1.0  0.10953  0.78347  0.86585  1.0000
  C   C568      1.0  0.12149  0.80324  0.86334  1.0000
  C   C569      1.0  0.11587  0.81559  0.83775  1.0000
  C   C570      1.0  0.09805  0.80776  0.81486  1.0000
  C   C571      1.0  0.08614  0.78797  0.81722  1.0000
  H   H987      1.0  0.11412  0.77417  0.88582  1.0000
  H   H988      1.0  0.13508  0.80890  0.88119  1.0000
  H   H989      1.0  0.09336  0.81712  0.79532  1.0000
  H   H990      1.0  0.07247  0.78232  0.79966  1.0000
  C   C572      1.0  0.25630  0.92849  0.98671  1.0000
  C   C573      1.0  0.16190  0.91053  0.72162  1.0000
  H   H991      1.0  0.28680  0.91934  0.64607  1.0000
  C   C574      1.0  0.36812  0.97059  0.75132  1.0000
  C   C575      1.0  0.11554  0.81757  0.70562  1.0000
  Fe  Fe63      1.0  0.36037  0.96114  0.89975  1.0000
  H   H992      1.0  0.01882  0.77638  0.66575  1.0000
  C   C576      1.0  0.09742  0.75777  0.70796  1.0000
  H   H993      1.0  0.06994  0.75954  0.72525  1.0000
  H   H994      1.0  0.43247  0.97086  0.79104  1.0000
  H   H995      1.0  0.21449  0.88724  0.99816  1.0000
  H   H996      1.0  0.28805  0.94665  0.77835  1.0000
  H   H997      1.0  0.23772  0.94544  0.70618  1.0000
  H   H998      1.0  0.05715  0.78103  0.70146  1.0000
  C   C577      1.0  0.29063  0.97991  0.65179  1.0000
  H   H999      1.0  0.10185  0.88554  0.74363  1.0000
  H   H1000     1.0  0.43928  0.89094  0.99257  1.0000
  H   H1001     1.0  0.08772  0.76278  0.53992  1.0000
  H   H1002     1.0  0.28536  0.95113  0.99897  1.0000
  C   C578      1.0  0.20875  0.92984  0.56855  1.0000
  H   H1003     1.0  0.33066  0.97882  0.75544  1.0000
  H   H1004     1.0  0.06094  0.73633  0.96863  1.0000
  H   H1005     1.0  0.09943  0.74579  0.55035  1.0000
  H   H1006     1.0  0.09028  0.74361  0.62339  1.0000
  C   C579      1.0  0.09267  0.78965  0.66250  1.0000
  S   S131      1.0  0.02928  0.73305  0.76602  1.0000
  H   H1007     1.0  0.10615  0.75729  0.68073  1.0000
  H   H1008     1.0  0.07993  0.85704  0.79309  1.0000
  H   H1009     1.0  0.43779  0.95933  0.72150  1.0000
  H   H1010     1.0  0.18902  0.90991  0.69650  1.0000
  H   H1011     1.0  0.43241  0.87538  0.89511  1.0000
  H   H1012     1.0  0.23278  0.95295  0.53993  1.0000
  C   C580      1.0  0.24456  0.89808  0.02602  1.0000
  H   H1013     1.0  0.40570  0.96252  0.73754  1.0000
  H   H1014     1.0  0.00571  0.75118  0.67597  1.0000
  C   C581      1.0  0.27074  0.94980  0.98590  1.0000
  H   H1015     1.0  0.27533  0.96931  0.65453  1.0000
  H   H1016     1.0  0.39612  0.94706  0.67830  1.0000
  C   C582      1.0  0.22927  0.88699  0.99238  1.0000
  C   C583      1.0  0.09174  0.86230  0.81711  1.0000
  H   H1017     1.0  0.38516  0.90605  0.65400  1.0000
  N   N32       1.0  0.13013  0.90669  0.76209  1.0000
  C   C584      1.0  0.11045  0.89139  0.77250  1.0000
  C   C585      1.0  0.12688  0.92058  0.73130  1.0000
  C   C586      1.0  0.14232  0.89696  0.74118  1.0000
  C   C587      1.0  0.14139  0.91715  0.79982  1.0000
  C   C588      1.0  0.12919  0.91966  0.83667  1.0000
  C   C589      1.0  0.11151  0.87398  0.79741  1.0000
  H   H1018     1.0  0.10457  0.76815  0.60844  1.0000
  C   C590      1.0  0.11433  0.93201  0.74575  1.0000
  H   H1019     1.0  0.02192  0.76601  0.71507  1.0000
  C   C591      1.0  0.14245  0.93378  0.86834  1.0000
  H   H1020     1.0  0.29482  0.94245  0.67070  1.0000
  C   C592      1.0  0.17559  0.89992  0.71191  1.0000
  H   H1021     1.0  0.10113  0.89741  0.78985  1.0000
  H   H1022     1.0  0.14120  0.93177  0.72221  1.0000
  H   H1023     1.0  0.25918  0.94531  0.84778  1.0000
  H   H1024     1.0  0.12003  0.91283  0.70236  1.0000
  H   H1025     1.0  0.14631  0.88753  0.76364  1.0000
  H   H1026     1.0  0.15074  0.90961  0.81314  1.0000
  H   H1027     1.0  0.15203  0.93163  0.79084  1.0000
  H   H1028     1.0  0.12192  0.90573  0.85284  1.0000
  H   H1029     1.0  0.11751  0.92495  0.82688  1.0000
  H   H1030     1.0  0.12297  0.87857  0.82221  1.0000
  H   H1031     1.0  0.16997  0.92260  0.74248  1.0000
  H   H1032     1.0  0.11624  0.82687  0.73257  1.0000
  H   H1033     1.0  0.09982  0.92249  0.75766  1.0000
  H   H1034     1.0  0.12250  0.94238  0.77004  1.0000
  H   H1035     1.0  0.45959  0.95193  0.68355  1.0000
  H   H1036     1.0  0.27193  0.91339  0.57673  1.0000
  H   H1037     1.0  0.08423  0.80994  0.69872  1.0000
  H   H1038     1.0  0.13355  0.93488  0.89498  1.0000
  H   H1039     1.0  0.15419  0.92882  0.88004  1.0000
  H   H1040     1.0  0.14951  0.94826  0.85425  1.0000
  H   H1041     1.0  0.28140  0.93408  0.54318  1.0000
  S   S132      1.0  0.34025  0.92815  0.54580  1.0000
  H   H1042     1.0  0.21624  0.92080  0.58262  1.0000
  C   C593      1.0  0.26962  0.91966  0.54680  1.0000
  N   N33       1.0  0.27124  0.90587  0.77112  1.0000
  C   C594      1.0  0.26347  0.91939  0.79245  1.0000
  C   C595      1.0  0.25467  0.88664  0.76404  1.0000
  C   C596      1.0  0.28642  0.90270  0.79964  1.0000
  C   C597      1.0  0.28133  0.91419  0.73112  1.0000
  C   C598      1.0  0.26916  0.92067  0.69885  1.0000
  C   C599      1.0  0.27893  0.93923  0.80499  1.0000
  C   C600      1.0  0.29402  0.88674  0.78691  1.0000
  C   C601      1.0  0.23356  0.88661  0.75611  1.0000
  C   C602      1.0  0.21913  0.86667  0.74386  1.0000
  H   H1043     1.0  0.41528  0.97327  0.60700  1.0000
  H   H1044     1.0  0.28821  0.92345  0.02564  1.0000
  C   C603      1.0  0.30978  0.88556  0.81746  1.0000
  H   H1045     1.0  0.25567  0.91244  0.82109  1.0000
  H   H1046     1.0  0.25211  0.92222  0.77317  1.0000
  H   H1047     1.0  0.25835  0.87884  0.73832  1.0000
  H   H1048     1.0  0.25299  0.87721  0.79178  1.0000
  H   H1049     1.0  0.28034  0.89892  0.83115  1.0000
  H   H1050     1.0  0.29965  0.91613  0.80315  1.0000
  H   H1051     1.0  0.29524  0.92663  0.73729  1.0000
  H   H1052     1.0  0.28607  0.90360  0.71513  1.0000
  N   N34       1.0  0.07511  0.77092  0.66239  1.0000
  H   H1053     1.0  0.25652  0.90814  0.68738  1.0000
  H   H1054     1.0  0.28879  0.93761  0.83013  1.0000
  C   C604      1.0  0.07647  0.75716  0.69589  1.0000
  H   H1055     1.0  0.30068  0.88949  0.75584  1.0000
  H   H1056     1.0  0.28190  0.87242  0.78657  1.0000
  H   H1057     1.0  0.22793  0.89062  0.78486  1.0000
  H   H1058     1.0  0.23314  0.89686  0.73161  1.0000
  H   H1059     1.0  0.21842  0.85607  0.76874  1.0000
  H   H1060     1.0  0.20413  0.86700  0.73928  1.0000
  H   H1061     1.0  0.22370  0.86201  0.71461  1.0000
  C   C605      1.0  0.44319  0.86809  0.89523  1.0000
  H   H1062     1.0  0.22157  0.85870  0.02103  1.0000
  H   H1063     1.0  0.12647  0.81064  0.71105  1.0000
  H   H1064     1.0  0.19768  0.97189  0.78980  1.0000
  C   C606      1.0  0.27408  0.95755  0.94159  1.0000
  H   H1065     1.0  0.30368  0.88216  0.84906  1.0000
  H   H1066     1.0  0.31493  0.87404  0.80796  1.0000
  H   H1067     1.0  0.32268  0.89934  0.81828  1.0000
  H   H1068     1.0  0.24143  0.86468  0.98422  1.0000
  H   H1069     1.0  0.28474  0.97265  0.94180  1.0000
  H   H1070     1.0  0.26387  0.93150  0.71172  1.0000
  H   H1071     1.0  0.43966  0.93254  0.65983  1.0000
  S   S133      1.0  0.34299  0.94494  0.01162  1.0000
  H   H1072     1.0  0.37083  0.92070  0.64129  1.0000
  Fe  Fe64      1.0  0.33994  0.96938  0.97564  1.0000
  H   H1073     1.0  0.15875  0.91660  0.69204  1.0000
  C   C607      1.0  0.24924  0.92101  0.54553  1.0000
  H   H1074     1.0  0.11530  0.86426  0.77640  1.0000
  H   H1075     1.0  0.19337  0.92041  0.56031  1.0000
  H   H1076     1.0  0.05976  0.74828  0.61882  1.0000
  H   H1077     1.0  0.45557  0.97546  0.63553  1.0000
  H   H1078     1.0  0.24868  0.93026  0.57165  1.0000
  C   C608      1.0  0.44979  0.95955  0.98634  1.0000
  H   H1079     1.0  0.39878  0.94265  0.60063  1.0000
  H   H1080     1.0  0.45983  0.90392  0.92161  1.0000
  C   C609      1.0  0.05693  0.77560  0.66947  1.0000
  H   H1081     1.0  0.21637  0.85842  0.96625  1.0000
  C   C610      1.0  0.26871  0.95222  0.82119  1.0000
  C   C611      1.0  0.21795  0.97713  0.73915  1.0000
  H   H1082     1.0  0.10168  0.95211  0.72139  1.0000
  H   H1083     1.0  0.09293  0.84968  0.83364  1.0000
  H   H1084     1.0  0.03694  0.74550  0.67884  1.0000
  C   C612      1.0  0.03681  0.75876  0.66359  1.0000
  H   H1085     1.0  0.40541  0.97776  0.65347  1.0000
  H   H1086     1.0  0.37810  0.90841  0.60105  1.0000
  H   H1087     1.0  0.16811  0.88761  0.69106  1.0000
  H   H1088     1.0  0.27988  0.96607  0.83165  1.0000
  H   H1089     1.0  0.09136  0.79357  0.72983  1.0000
  H   H1090     1.0  0.41248  0.93498  0.68790  1.0000
  N   N35       1.0  0.42634  0.96364  0.66174  1.0000
  H   H1091     1.0  0.07018  0.77161  0.59638  1.0000
  C   C613      1.0  0.45708  0.87426  0.93276  1.0000
  H   H1092     1.0  0.27283  0.93464  0.63869  1.0000
  C   C614      1.0  0.43391  0.97050  0.70463  1.0000
  C   C615      1.0  0.45068  0.89704  0.01701  1.0000
  H   H1093     1.0  0.08768  0.87111  0.83993  1.0000
  C   C616      1.0  0.11035  0.94373  0.71009  1.0000
  H   H1094     1.0  0.41309  0.92824  0.61236  1.0000
  H   H1095     1.0  0.41812  0.98086  0.52940  1.0000
  H   H1096     1.0  0.29751  0.97130  0.71165  1.0000
  H   H1097     1.0  0.26541  0.95928  0.00395  1.0000
  C   C617      1.0  0.20772  0.94383  0.60162  1.0000
  H   H1098     1.0  0.45791  0.93724  0.59464  1.0000
  H   H1099     1.0  0.05674  0.78740  0.64832  1.0000
  H   H1100     1.0  0.08847  0.74137  0.76501  1.0000
  H   H1101     1.0  0.28032  0.94895  0.92264  1.0000
  Fe  Fe65      1.0  0.37115  0.94953  0.53364  1.0000
  H   H1102     1.0  0.25950  0.95528  0.79643  1.0000
  H   H1103     1.0  0.43808  0.95798  0.60444  1.0000
  H   H1104     1.0  0.12444  0.95397  0.69746  1.0000
  C   C618      1.0  0.09007  0.75625  0.60538  1.0000
  H   H1105     1.0  0.42109  0.95756  0.96282  1.0000
  H   H1106     1.0  0.10667  0.78725  0.65919  1.0000
  C   C619      1.0  0.40912  0.94473  0.66538  1.0000
  H   H1107     1.0  0.11141  0.74179  0.74468  1.0000
  C   C620      1.0  0.09629  0.74092  0.73615  1.0000
  H   H1108     1.0  0.03353  0.75584  0.63011  1.0000
  H   H1109     1.0  0.03159  0.74335  0.94823  1.0000
  H   H1110     1.0  0.13353  0.88725  0.71620  1.0000
  C   C621      1.0  0.22936  0.96983  0.71531  1.0000
  S   S134      1.0  0.17502  0.89514  0.00614  1.0000
  H   H1111     1.0  0.11953  0.82672  0.67743  1.0000
  H   H1112     1.0  0.19991  0.95307  0.58947  1.0000
  H   H1113     1.0  0.19966  0.93575  0.62892  1.0000
  C   C622      1.0  0.41925  0.97776  0.63955  1.0000
  H   H1114     1.0  0.10578  0.77112  0.72512  1.0000
  C   C623      1.0  0.22708  0.86592  0.99106  1.0000
  H   H1115     1.0  0.23286  0.94974  0.01292  1.0000
  C   C624      1.0  0.41930  0.97535  0.73263  1.0000
  H   H1116     1.0  0.23826  0.90631  0.55027  1.0000
  H   H1117     1.0  0.11495  0.73404  0.02537  1.0000
  H   H1118     1.0  0.22281  0.95311  0.61198  1.0000
  S   S135      1.0  0.37155  0.98057  0.95506  1.0000
  H   H1119     1.0  0.44805  0.86991  0.96085  1.0000
  H   H1120     1.0  0.07307  0.73837  0.55467  1.0000
  H   H1121     1.0  0.25807  0.89516  0.01903  1.0000
  H   H1122     1.0  0.43488  0.85233  0.89646  1.0000
  C   C625      1.0  0.08735  0.75046  0.55980  1.0000
  H   H1123     1.0  0.45169  0.87159  0.86610  1.0000
  S   S136      1.0  0.37208  0.97290  0.83602  1.0000
  H   H1124     1.0  0.32724  0.96949  0.83389  1.0000
  H   H1125     1.0  0.29910  0.97356  0.63254  1.0000
  H   H1126     1.0  0.10157  0.74970  0.01433  1.0000
  H   H1127     1.0  0.21863  0.91564  0.01694  1.0000
  C   C626      1.0  0.46163  0.96018  0.02154  1.0000
  C   C627      1.0  0.21941  0.94071  0.52937  1.0000
  H   H1128     1.0  0.26925  0.98051  0.52921  1.0000
  Fe  Fe66      1.0  0.70114  0.03732  0.11038  1.0000
  S   S137      1.0  0.70384  0.06748  0.12295  1.0000
  Fe  Fe67      1.0  0.69731  0.02593  0.20335  1.0000
  S   S138      1.0  0.70035  0.05578  0.22268  1.0000
  H   H1129     1.0  0.77669  0.07187  0.04038  1.0000
  Fe  Fe68      1.0  0.67964  0.05355  0.16843  1.0000
  S   S139      1.0  0.65436  0.06386  0.17028  1.0000
  Fe  Fe69      1.0  0.72459  0.06759  0.17561  1.0000
  S   S140      1.0  0.75646  0.08995  0.18256  1.0000
  S   S141      1.0  0.67529  0.02332  0.15192  1.0000
  S   S142      1.0  0.72309  0.03774  0.16031  1.0000
  Fe  Fe70      1.0  0.83393  0.20228  0.22848  1.0000
  C   C628      1.0  0.49485  0.98958  0.39517  1.0000
  S   S143      1.0  0.80207  0.17983  0.22226  1.0000
  H   H1130     1.0  0.77425  0.11116  0.10044  1.0000
  C   C629      1.0  0.78363  0.11018  0.07483  1.0000
  S   S144      1.0  0.85624  0.20001  0.27523  1.0000
  C   C630      1.0  0.51876  0.02073  0.42600  1.0000
  C   C631      1.0  0.73707  0.10111  0.03852  1.0000
  H   H1131     1.0  0.80977  0.12976  0.10606  1.0000
  H   H1132     1.0  0.74643  0.03884  0.08875  1.0000
  H   H1133     1.0  0.61434  0.99627  0.23069  1.0000
  H   H1134     1.0  0.67951  0.98591  0.10381  1.0000
  S   S145      1.0  0.90203  0.20256  0.21635  1.0000
  Fe  Fe71      1.0  0.55100  0.98857  0.09299  1.0000
  H   H1135     1.0  0.73915  0.10133  0.10687  1.0000
  C   C632      1.0  0.50544  0.01158  0.38902  1.0000
  C   C633      1.0  0.64521  0.99089  0.50565  1.0000
  S   S146      1.0  0.54423  0.99899  0.50167  1.0000
  H   H1136     1.0  0.78404  0.12438  0.45460  1.0000
  H   H1137     1.0  0.84163  0.13361  0.28838  1.0000
  H   H1138     1.0  0.75258  0.12408  0.08232  1.0000
  H   H1139     1.0  0.66022  0.00046  0.49579  1.0000
  H   H1140     1.0  0.70738  0.10528  0.08623  1.0000
  H   H1141     1.0  0.66333  0.08447  0.08264  1.0000
  H   H1142     1.0  0.65885  0.07049  0.52502  1.0000
  H   H1143     1.0  0.86354  0.15321  0.30516  1.0000
  C   C634      1.0  0.74913  0.07556  0.05833  1.0000
  C   C635      1.0  0.85927  0.22182  0.48016  1.0000
  S   S147      1.0  0.85634  0.21516  0.17836  1.0000
  C   C636      1.0  0.86121  0.19639  0.43737  1.0000
  C   C637      1.0  0.86012  0.20358  0.47685  1.0000
  H   H1144     1.0  0.92941  0.21185  0.39253  1.0000
  H   H1145     1.0  0.49007  0.00064  0.31541  1.0000
  H   H1146     1.0  0.86189  0.18228  0.43457  1.0000
  H   H1147     1.0  0.49473  0.01875  0.38430  1.0000
  H   H1148     1.0  0.64544  0.02784  0.48992  1.0000
  C   C638      1.0  0.63124  0.05004  0.14820  1.0000
  C   C639      1.0  0.62584  0.03052  0.13874  1.0000
  C   C640      1.0  0.60723  0.02024  0.12044  1.0000
  C   C641      1.0  0.59426  0.02964  0.11089  1.0000
  C   C642      1.0  0.59981  0.04912  0.12012  1.0000
  C   C643      1.0  0.61802  0.05916  0.13929  1.0000
  H   H1149     1.0  0.63595  0.02340  0.14561  1.0000
  C   C644      1.0  0.63229  0.01817  0.50669  1.0000
  H   H1150     1.0  0.59000  0.05654  0.11226  1.0000
  H   H1151     1.0  0.62208  0.07421  0.14644  1.0000
  C   C645      1.0  0.76878  0.11515  0.19214  1.0000
  C   C646      1.0  0.75861  0.12751  0.19781  1.0000
  C   C647      1.0  0.76908  0.14722  0.20617  1.0000
  C   C648      1.0  0.78988  0.15501  0.20874  1.0000
  C   C649      1.0  0.80006  0.14271  0.20232  1.0000
  C   C650      1.0  0.78959  0.12297  0.19422  1.0000
  H   H1152     1.0  0.74265  0.12185  0.19621  1.0000
  H   H1153     1.0  0.76096  0.15650  0.21100  1.0000
  H   H1154     1.0  0.81602  0.14834  0.20399  1.0000
  H   H1155     1.0  0.79769  0.11365  0.18970  1.0000
  H   H1156     1.0  0.63628  0.98753  0.47645  1.0000
  C   C651      1.0  0.90543  0.19893  0.34998  1.0000
  H   H1157     1.0  0.73330  0.06580  0.05798  1.0000
  H   H1158     1.0  0.82031  0.21672  0.33761  1.0000
  C   C652      1.0  0.86172  0.20745  0.40155  1.0000
  H   H1159     1.0  0.78011  0.14316  0.48308  1.0000
  H   H1160     1.0  0.51016  0.01799  0.45499  1.0000
  H   H1161     1.0  0.72324  0.12426  0.11871  1.0000
  H   H1162     1.0  0.81774  0.21133  0.39239  1.0000
  C   C653      1.0  0.72170  0.11760  0.08768  1.0000
  H   H1163     1.0  0.53064  0.01487  0.42918  1.0000
  C   C654      1.0  0.48672  0.98513  0.32177  1.0000
  C   C655      1.0  0.92620  0.21480  0.23515  1.0000
  H   H1164     1.0  0.59770  0.99650  0.18917  1.0000
  H   H1165     1.0  0.48972  0.98699  0.42757  1.0000
  H   H1166     1.0  0.51506  0.01455  0.36149  1.0000
  H   H1167     1.0  0.74189  0.10794  0.29870  1.0000
  Fe  Fe72      1.0  0.87873  0.21483  0.22712  1.0000
  H   H1168     1.0  0.76698  0.05789  0.11296  1.0000
  H   H1169     1.0  0.78823  0.09794  0.08218  1.0000
  C   C656      1.0  0.73892  0.11101  0.08096  1.0000
  H   H1170     1.0  0.79946  0.21790  0.36477  1.0000
  H   H1171     1.0  0.74695  0.13226  0.28196  1.0000
  H   H1172     1.0  0.89987  0.18494  0.36661  1.0000
  C   C657      1.0  0.76150  0.04964  0.08401  1.0000
  S   S148      1.0  0.70297  0.02531  0.04685  1.0000
  H   H1173     1.0  0.71567  0.09513  0.52404  1.0000
  H   H1174     1.0  0.91527  0.19804  0.32490  1.0000
  S   S149      1.0  0.69652  0.00042  0.24459  1.0000
  N   N36       1.0  0.75218  0.09235  0.02940  1.0000
  H   H1175     1.0  0.74127  0.12561  0.33551  1.0000
  H   H1176     1.0  0.64373  0.05200  0.05897  1.0000
  H   H1177     1.0  0.84750  0.15734  0.26644  1.0000
  H   H1178     1.0  0.48192  0.99788  0.24110  1.0000
  H   H1179     1.0  0.86281  0.20187  0.37144  1.0000
  H   H1180     1.0  0.60321  0.00530  0.11243  1.0000
  C   C658      1.0  0.86130  0.22587  0.40494  1.0000
  H   H1181     1.0  0.69612  0.10400  0.52340  1.0000
  C   C659      1.0  0.64255  0.06422  0.04087  1.0000
  H   H1182     1.0  0.93167  0.18860  0.24170  1.0000
  H   H1183     1.0  0.77135  0.04185  0.07668  1.0000
  H   H1184     1.0  0.89264  0.20153  0.33588  1.0000
  H   H1185     1.0  0.75221  0.08026  0.09094  1.0000
  H   H1186     1.0  0.65794  0.99915  0.27318  1.0000
  C   C660      1.0  0.93779  0.20405  0.24506  1.0000
  C   C661      1.0  0.76124  0.06296  0.04815  1.0000
  S   S150      1.0  0.57249  0.01868  0.08155  1.0000
  C   C662      1.0  0.80961  0.20999  0.36249  1.0000
  C   C663      1.0  0.80219  0.12843  0.07548  1.0000
  N   N37       1.0  0.80216  0.15590  0.34445  1.0000
  C   C664      1.0  0.78165  0.14985  0.32571  1.0000
  C   C665      1.0  0.81161  0.17763  0.34648  1.0000
  C   C666      1.0  0.81438  0.14900  0.31611  1.0000
  C   C667      1.0  0.80225  0.14710  0.38662  1.0000
  C   C668      1.0  0.78897  0.15081  0.41953  1.0000
  C   C669      1.0  0.77080  0.12806  0.31747  1.0000
  C   C670      1.0  0.83628  0.15401  0.32944  1.0000
  C   C671      1.0  0.79779  0.18891  0.35277  1.0000
  H   H1187     1.0  0.52575  0.03649  0.42118  1.0000
  C   C672      1.0  0.78958  0.14013  0.45981  1.0000
  C   C673      1.0  0.74889  0.12325  0.30788  1.0000
  C   C674      1.0  0.84788  0.14922  0.29521  1.0000
  H   H1188     1.0  0.78227  0.15732  0.29547  1.0000
  H   H1189     1.0  0.77186  0.15453  0.34495  1.0000
  H   H1190     1.0  0.82333  0.18213  0.37096  1.0000
  H   H1191     1.0  0.81929  0.18358  0.31708  1.0000
  H   H1192     1.0  0.81410  0.15483  0.28432  1.0000
  H   H1193     1.0  0.80808  0.13311  0.31314  1.0000
  H   H1194     1.0  0.79839  0.13134  0.38416  1.0000
  H   H1195     1.0  0.81742  0.15270  0.40028  1.0000
  H   H1196     1.0  0.77334  0.14587  0.40903  1.0000
  H   H1197     1.0  0.79440  0.16630  0.42708  1.0000
  H   H1198     1.0  0.77717  0.12371  0.29017  1.0000
  H   H1199     1.0  0.77185  0.11922  0.34442  1.0000
  H   H1200     1.0  0.83723  0.14550  0.35717  1.0000
  H   H1201     1.0  0.84369  0.16941  0.33703  1.0000
  H   H1202     1.0  0.78913  0.18847  0.32387  1.0000
  H   H1203     1.0  0.78725  0.18293  0.37810  1.0000
  C   C675      1.0  0.91669  0.21497  0.38014  1.0000
  S   S151      1.0  0.86050  0.18964  0.52120  1.0000
  C   C676      1.0  0.95724  0.21312  0.25936  1.0000
  H   H1204     1.0  0.80489  0.14499  0.47257  1.0000
  C   C677      1.0  0.66057  0.98689  0.28598  1.0000
  H   H1205     1.0  0.56490  0.99713  0.30141  1.0000
  H   H1206     1.0  0.79828  0.14130  0.07071  1.0000
  H   H1207     1.0  0.72064  0.13766  0.51752  1.0000
  H   H1208     1.0  0.62031  0.01072  0.48410  1.0000
  H   H1209     1.0  0.72231  0.12249  0.47605  1.0000
  C   C678      1.0  0.66147  0.08163  0.04887  1.0000
  H   H1210     1.0  0.62662  0.98968  0.16426  1.0000
  H   H1211     1.0  0.67455  0.07898  0.03793  1.0000
  H   H1212     1.0  0.72166  0.12843  0.06397  1.0000
  H   H1213     1.0  0.66070  0.09457  0.03305  1.0000
  H   H1214     1.0  0.90412  0.22924  0.05532  1.0000
  H   H1215     1.0  0.96084  0.22711  0.36660  1.0000
  H   H1216     1.0  0.90670  0.21428  0.40613  1.0000
  H   H1217     1.0  0.61997  0.98929  0.03015  1.0000
  H   H1218     1.0  0.74041  0.12850  0.51743  1.0000
  C   C679      1.0  0.67823  0.98444  0.27744  1.0000
  H   H1219     1.0  0.63025  0.06779  0.05308  1.0000
  H   H1220     1.0  0.46736  0.00466  0.42376  1.0000
  C   C680      1.0  0.55103  0.98497  0.30146  1.0000
  S   S152      1.0  0.52059  0.98361  0.11643  1.0000
  H   H1221     1.0  0.85840  0.22749  0.51037  1.0000
  H   H1222     1.0  0.72190  0.08998  0.03543  1.0000
  C   C681      1.0  0.72456  0.12511  0.50983  1.0000
  C   C682      1.0  0.60377  0.98722  0.20722  1.0000
  H   H1223     1.0  0.81255  0.12796  0.05112  1.0000
  S   S153      1.0  0.55406  0.98778  0.38622  1.0000
  H   H1224     1.0  0.61686  0.02660  0.03933  1.0000
  H   H1225     1.0  0.50113  0.98326  0.31956  1.0000
  H   H1226     1.0  0.69310  0.99303  0.15215  1.0000
  H   H1227     1.0  0.63543  0.00710  0.06613  1.0000
  Fe  Fe73      1.0  0.86062  0.22987  0.29485  1.0000
  C   C683      1.0  0.63431  0.00146  0.03417  1.0000
  C   C684      1.0  0.77291  0.10731  0.03191  1.0000
  C   C685      1.0  0.48197  0.98312  0.24368  1.0000
  H   H1228     1.0  0.50647  0.98329  0.39330  1.0000
  H   H1229     1.0  0.46295  0.99907  0.35007  1.0000
  H   H1230     1.0  0.54905  0.98290  0.23466  1.0000
  H   H1231     1.0  0.49731  0.98368  0.24019  1.0000
  H   H1232     1.0  0.90721  0.23024  0.49247  1.0000
  S   S154      1.0  0.83699  0.23171  0.25142  1.0000
  H   H1233     1.0  0.64647  0.99609  0.03011  1.0000
  H   H1234     1.0  0.60239  0.04897  0.02709  1.0000
  H   H1235     1.0  0.64914  0.05465  0.56872  1.0000
  Fe  Fe74      1.0  0.88040  0.20640  0.67106  1.0000
  H   H1236     1.0  0.61395  0.04910  0.91977  1.0000
  H   H1237     1.0  0.58255  0.03213  0.94355  1.0000
  Fe  Fe75      1.0  0.85850  0.19937  0.58704  1.0000
  S   S155      1.0  0.83288  0.20574  0.61179  1.0000
  H   H1238     1.0  0.56695  0.04529  0.02047  1.0000
  Fe  Fe76      1.0  0.83450  0.18732  0.66659  1.0000
  S   S156      1.0  0.80644  0.16880  0.70138  1.0000
  C   C686      1.0  0.63750  0.00356  0.53288  1.0000
  S   S157      1.0  0.85903  0.17965  0.64019  1.0000
  Fe  Fe77      1.0  0.69216  0.05126  0.80996  1.0000
  S   S158      1.0  0.71657  0.04199  0.78894  1.0000
  S   S159      1.0  0.68955  0.06167  0.87507  1.0000
  Fe  Fe78      1.0  0.67365  0.04794  0.72228  1.0000
  S   S160      1.0  0.69723  0.03928  0.69614  1.0000
  S   S161      1.0  0.65040  0.05157  0.67806  1.0000
  Fe  Fe79      1.0  0.69240  0.02000  0.75177  1.0000
  C   C687      1.0  0.94151  0.22515  0.75403  1.0000
  Fe  Fe80      1.0  0.71924  0.06234  0.73518  1.0000
  S   S162      1.0  0.74855  0.07996  0.70389  1.0000
  S   S163      1.0  0.66771  0.02769  0.77651  1.0000
  S   S164      1.0  0.69588  0.07260  0.75763  1.0000
  H   H1239     1.0  0.73563  0.07633  0.90429  1.0000
  H   H1240     1.0  0.74648  0.10037  0.88408  1.0000
  H   H1241     1.0  0.66188  0.00344  0.63330  1.0000
  C   C688      1.0  0.71377  0.11071  0.58106  1.0000
  H   H1242     1.0  0.84924  0.22486  0.78829  1.0000
  C   C689      1.0  0.63099  0.03237  0.65360  1.0000
  C   C690      1.0  0.61769  0.03653  0.62668  1.0000
  C   C691      1.0  0.60220  0.02172  0.60647  1.0000
  C   C692      1.0  0.59975  0.00251  0.61321  1.0000
  C   C693      1.0  0.61307  0.99835  0.64007  1.0000
  C   C694      1.0  0.62856  0.01314  0.66018  1.0000
  H   H1243     1.0  0.61930  0.05132  0.62157  1.0000
  H   H1244     1.0  0.59210  0.02518  0.58596  1.0000
  H   H1245     1.0  0.56972  0.05589  0.96934  1.0000
  H   H1246     1.0  0.63852  0.00967  0.68108  1.0000
  C   C695      1.0  0.79060  0.14400  0.70134  1.0000
  C   C696      1.0  0.77435  0.13776  0.72809  1.0000
  C   C697      1.0  0.76143  0.11830  0.72956  1.0000
  C   C698      1.0  0.76448  0.10474  0.70401  1.0000
  C   C699      1.0  0.78069  0.11098  0.67717  1.0000
  C   C700      1.0  0.79365  0.13043  0.67579  1.0000
  H   H1247     1.0  0.77184  0.14806  0.74811  1.0000
  H   H1248     1.0  0.74921  0.11381  0.75069  1.0000
  H   H1249     1.0  0.78336  0.10067  0.65747  1.0000
  H   H1250     1.0  0.80609  0.13491  0.65518  1.0000
  H   H1251     1.0  0.73335  0.10110  0.95257  1.0000
  S   S165      1.0  0.90841  0.20741  0.70570  1.0000
  H   H1252     1.0  0.60550  0.01257  0.99630  1.0000
  H   H1253     1.0  0.72366  0.10436  0.69272  1.0000
  C   C701      1.0  0.63961  0.05933  0.99410  1.0000
  H   H1254     1.0  0.94293  0.21127  0.75439  1.0000
  H   H1255     1.0  0.65084  0.02890  0.00818  1.0000
  C   C702      1.0  0.65316  0.06957  0.55692  1.0000
  C   C703      1.0  0.67036  0.98849  0.58431  1.0000
  C   C704      1.0  0.69954  0.03583  0.99942  1.0000
  C   C705      1.0  0.70282  0.02818  0.96205  1.0000
  C   C706      1.0  0.70017  0.03612  0.92372  1.0000
  C   C707      1.0  0.69401  0.05169  0.92242  1.0000
  C   C708      1.0  0.69108  0.05957  0.95983  1.0000
  C   C709      1.0  0.69371  0.05162  0.99816  1.0000
  H   H1256     1.0  0.70752  0.01607  0.96273  1.0000
  H   H1257     1.0  0.70293  0.03022  0.89520  1.0000
  H   H1258     1.0  0.68671  0.07188  0.95907  1.0000
  H   H1259     1.0  0.66213  0.01173  0.87100  1.0000
  H   H1260     1.0  0.75474  0.07620  0.61405  1.0000
  C   C710      1.0  0.70876  0.12294  0.70945  1.0000
  H   H1261     1.0  0.73791  0.11255  0.01570  1.0000
  C   C711      1.0  0.74799  0.09037  0.90833  1.0000
  C   C712      1.0  0.63571  0.03682  0.86808  1.0000
  H   H1262     1.0  0.69883  0.98269  0.81784  1.0000
  H   H1263     1.0  0.46497  0.02339  0.00597  1.0000
  H   H1264     1.0  0.85362  0.22118  0.84205  1.0000
  H   H1265     1.0  0.91772  0.18374  0.58395  1.0000
  C   C713      1.0  0.69917  0.09957  0.64907  1.0000
  H   H1266     1.0  0.91678  0.21391  0.60929  1.0000
  H   H1267     1.0  0.74635  0.05956  0.57187  1.0000
  S   S166      1.0  0.58057  0.98306  0.58893  1.0000
  H   H1268     1.0  0.75977  0.07887  0.97688  1.0000
  H   H1269     1.0  0.94420  0.19237  0.59039  1.0000
  C   C714      1.0  0.72796  0.07610  0.58280  1.0000
  H   H1270     1.0  0.67515  0.00168  0.56494  1.0000
  H   H1271     1.0  0.64835  0.03484  0.92776  1.0000
  H   H1272     1.0  0.57886  0.02009  0.99270  1.0000
  H   H1273     1.0  0.68883  0.10716  0.64303  1.0000
  H   H1274     1.0  0.94380  0.22474  0.65808  1.0000
  C   C715      1.0  0.63978  0.04280  0.91344  1.0000
  C   C716      1.0  0.66864  0.08358  0.58539  1.0000
  H   H1275     1.0  0.67196  0.99717  0.90268  1.0000
  C   C717      1.0  0.74823  0.08443  0.98591  1.0000
  H   H1276     1.0  0.62589  0.99027  0.88094  1.0000
  H   H1277     1.0  0.60988  0.02445  0.92888  1.0000
  C   C718      1.0  0.92535  0.22730  0.73312  1.0000
  H   H1278     1.0  0.61130  0.98358  0.64562  1.0000
  N   N38       1.0  0.62102  0.04269  0.98223  1.0000
  C   C719      1.0  0.68704  0.07799  0.59064  1.0000
  H   H1279     1.0  0.92848  0.18863  0.63510  1.0000
  C   C720      1.0  0.56710  0.04237  0.98690  1.0000
  H   H1280     1.0  0.62863  0.04574  0.85164  1.0000
  H   H1281     1.0  0.67805  0.00108  0.84877  1.0000
  C   C721      1.0  0.93046  0.19345  0.60226  1.0000
  S   S167      1.0  0.68710  0.98928  0.73460  1.0000
  C   C722      1.0  0.74741  0.09858  0.95114  1.0000
  H   H1282     1.0  0.70699  0.12150  0.58724  1.0000
  C   C723      1.0  0.72036  0.08461  0.61914  1.0000
  H   H1283     1.0  0.73692  0.08780  0.56192  1.0000
  H   H1284     1.0  0.78282  0.10391  0.01015  1.0000
  Fe  Fe81      1.0  0.85640  0.23003  0.64478  1.0000
  H   H1285     1.0  0.69082  0.08680  0.66844  1.0000
  H   H1286     1.0  0.66167  0.08309  0.61587  1.0000
  H   H1287     1.0  0.70229  0.13280  0.69487  1.0000
  H   H1288     1.0  0.68622  0.00284  0.63934  1.0000
  H   H1289     1.0  0.67258  0.09831  0.57273  1.0000
  C   C724      1.0  0.58302  0.03434  0.97743  1.0000
  H   H1290     1.0  0.63605  0.01124  0.97147  1.0000
  H   H1291     1.0  0.75996  0.11253  0.95391  1.0000
  H   H1292     1.0  0.76220  0.08843  0.90387  1.0000
  H   H1293     1.0  0.71450  0.07318  0.64307  1.0000
  C   C725      1.0  0.60367  0.04814  0.99301  1.0000
  H   H1294     1.0  0.64894  0.01164  0.55590  1.0000
  H   H1295     1.0  0.71575  0.06543  0.56514  1.0000
  H   H1296     1.0  0.68251  0.06483  0.61055  1.0000
  H   H1297     1.0  0.72739  0.12428  0.65786  1.0000
  C   C726      1.0  0.74144  0.06588  0.59834  1.0000
  C   C727      1.0  0.93119  0.21403  0.59847  1.0000
  H   H1298     1.0  0.64921  0.05833  0.91373  1.0000
  H   H1299     1.0  0.72127  0.13148  0.72988  1.0000
  S   S168      1.0  0.85610  0.21253  0.70161  1.0000
  H   H1300     1.0  0.72975  0.11829  0.58853  1.0000
  C   C728      1.0  0.85998  0.23007  0.81436  1.0000
  H   H1301     1.0  0.69012  0.07321  0.56018  1.0000
  H   H1302     1.0  0.65294  0.05681  0.98463  1.0000
  H   H1303     1.0  0.57941  0.98987  0.92496  1.0000
  C   C729      1.0  0.71162  0.10727  0.53362  1.0000
  H   H1304     1.0  0.63966  0.07310  0.55593  1.0000
  N   N39       1.0  0.70515  0.09330  0.60887  1.0000
  H   H1305     1.0  0.73355  0.05417  0.62038  1.0000
  C   C730      1.0  0.63628  0.01738  0.00255  1.0000
  C   C731      1.0  0.66615  0.99881  0.87148  1.0000
  H   H1306     1.0  0.93262  0.21832  0.56538  1.0000
  H   H1307     1.0  0.87385  0.22806  0.80643  1.0000
  H   H1308     1.0  0.69745  0.11219  0.72874  1.0000
  H   H1309     1.0  0.62602  0.02147  0.86544  1.0000
  H   H1310     1.0  0.64018  0.07251  0.97692  1.0000
  S   S169      1.0  0.88182  0.22521  0.61575  1.0000
  C   C732      1.0  0.62016  0.03933  0.93603  1.0000
  H   H1311     1.0  0.55238  0.03175  0.97792  1.0000
  C   C733      1.0  0.71627  0.11301  0.67644  1.0000
  H   H1312     1.0  0.73384  0.09553  0.63312  1.0000
  H   H1313     1.0  0.75447  0.05369  0.02111  1.0000
  S   S170      1.0  0.48839  0.98956  0.52899  1.0000
  H   H1314     1.0  0.64977  0.03893  0.85246  1.0000
  C   C734      1.0  0.94819  0.22806  0.62523  1.0000
  H   H1315     1.0  0.62422  0.99511  0.55043  1.0000
  H   H1316     1.0  0.60594  0.06277  0.98076  1.0000
  H   H1317     1.0  0.77290  0.12148  0.02117  1.0000
  H   H1318     1.0  0.64426  0.98237  0.82760  1.0000
  H   H1319     1.0  0.93660  0.23108  0.96136  1.0000
  C   C735      1.0  0.61908  0.02467  0.00605  1.0000
  H   H1320     1.0  0.95627  0.21399  0.92650  1.0000
  H   H1321     1.0  0.73403  0.07185  0.98438  1.0000
  H   H1322     1.0  0.96127  0.22405  0.62237  1.0000
  C   C736      1.0  0.67079  0.99438  0.62947  1.0000
  H   H1323     1.0  0.69128  0.05765  0.02676  1.0000
  H   H1324     1.0  0.62691  0.02697  0.52703  1.0000
  H   H1325     1.0  0.88099  0.29273  0.44163  1.0000
  H   H1326     1.0  0.91580  0.24331  0.09980  1.0000
  C   C737      1.0  0.90449  0.30810  0.06972  1.0000
  C   C738      1.0  0.90705  0.29178  0.08668  1.0000
  S   S171      1.0  0.86237  0.27175  0.17047  1.0000
  H   H1327     1.0  0.84038  0.28978  0.30977  1.0000
  S   S172      1.0  0.93421  0.36829  0.48410  1.0000
  H   H1328     1.0  0.87065  0.34849  0.37108  1.0000
  H   H1329     1.0  0.56850  0.47047  0.15629  1.0000
  C   C739      1.0  0.93197  0.44019  0.47814  1.0000
  C   C740      1.0  0.91408  0.25165  0.44290  1.0000
  H   H1330     1.0  0.94798  0.26333  0.13155  1.0000
  H   H1331     1.0  0.88293  0.32296  0.43126  1.0000
  H   H1332     1.0  0.95126  0.27140  0.18422  1.0000
  H   H1333     1.0  0.48780  0.44783  0.03646  1.0000
  H   H1334     1.0  0.92234  0.30294  0.40379  1.0000
  H   H1335     1.0  0.90918  0.23692  0.35002  1.0000
  H   H1336     1.0  0.91284  0.44101  0.42717  1.0000
  S   S173      1.0  0.88498  0.24459  0.25026  1.0000
  H   H1337     1.0  0.93425  0.23685  0.44113  1.0000
  H   H1338     1.0  0.85351  0.33312  0.40776  1.0000
  H   H1339     1.0  0.93483  0.29437  0.27388  1.0000
  H   H1340     1.0  0.95433  0.33123  0.37242  1.0000
  H   H1341     1.0  0.87715  0.28374  0.35641  1.0000
  C   C741      1.0  0.87851  0.28508  0.13082  1.0000
  C   C742      1.0  0.89428  0.28042  0.11724  1.0000
  H   H1342     1.0  0.94415  0.34324  0.15973  1.0000
  C   C743      1.0  0.93066  0.29054  0.30653  1.0000
  C   C744      1.0  0.88873  0.31278  0.08325  1.0000
  C   C745      1.0  0.87579  0.30128  0.11346  1.0000
  H   H1343     1.0  0.89664  0.26809  0.13040  1.0000
  H   H1344     1.0  0.88651  0.32526  0.07054  1.0000
  H   H1345     1.0  0.86367  0.30507  0.12375  1.0000
  H   H1346     1.0  0.91915  0.28803  0.07630  1.0000
  H   H1347     1.0  0.93178  0.26259  0.30059  1.0000
  C   C746      1.0  0.88385  0.29743  0.37345  1.0000
  C   C747      1.0  0.94711  0.47047  0.51465  1.0000
  H   H1348     1.0  0.94905  0.45228  0.17519  1.0000
  C   C748      1.0  0.86005  0.23296  0.44443  1.0000
  C   C749      1.0  0.84274  0.27472  0.39132  1.0000
  S   S174      1.0  0.89482  0.32220  0.51635  1.0000
  Fe  Fe82      1.0  0.96094  0.37164  0.52231  1.0000
  S   S175      1.0  0.92184  0.32223  0.03284  1.0000
  N   N40       1.0  0.93701  0.25199  0.38227  1.0000
  N   N41       1.0  0.86994  0.30815  0.37473  1.0000
  H   H1349     1.0  0.86330  0.28676  0.29904  1.0000
  H   H1350     1.0  0.84803  0.31540  0.25581  1.0000
  H   H1351     1.0  0.85723  0.32271  0.33115  1.0000
  C   C750      1.0  0.82189  0.26541  0.40820  1.0000
  C   C751      1.0  0.92917  0.46972  0.12660  1.0000
  C   C752      1.0  0.95679  0.27518  0.15228  1.0000
  C   C753      1.0  0.93374  0.26976  0.36699  1.0000
  H   H1352     1.0  0.95012  0.38974  0.33404  1.0000
  H   H1353     1.0  0.93986  0.24391  0.04499  1.0000
  C   C754      1.0  0.91019  0.24580  0.48833  1.0000
  H   H1354     1.0  0.85225  0.26894  0.40956  1.0000
  H   H1355     1.0  0.91799  0.26796  0.37074  1.0000
  C   C755      1.0  0.93195  0.36723  0.37290  1.0000
  C   C756      1.0  0.93339  0.31844  0.20003  1.0000
  C   C757      1.0  0.91378  0.32122  0.20352  1.0000
  C   C758      1.0  0.54387  0.48004  0.09927  1.0000
  H   H1356     1.0  0.87653  0.34866  0.46565  1.0000
  H   H1357     1.0  0.92242  0.37484  0.38352  1.0000
  H   H1358     1.0  0.95241  0.45827  0.05717  1.0000
  H   H1359     1.0  0.52897  0.47211  0.11227  1.0000
  H   H1360     1.0  0.94191  0.32402  0.22881  1.0000
  H   H1361     1.0  0.93592  0.32120  0.13343  1.0000
  H   H1362     1.0  0.84738  0.29285  0.23582  1.0000
  C   C759      1.0  0.94478  0.45110  0.50894  1.0000
  H   H1363     1.0  0.85994  0.24721  0.44778  1.0000
  C   C760      1.0  0.93712  0.47933  0.48903  1.0000
  H   H1364     1.0  0.87070  0.36604  0.43468  1.0000
  C   C761      1.0  0.93853  0.27521  0.32089  1.0000
  C   C762      1.0  0.85557  0.30496  0.25671  1.0000
  C   C763      1.0  0.86938  0.34066  0.40093  1.0000
  H   H1365     1.0  0.92482  0.35846  0.34550  1.0000
  H   H1366     1.0  0.93897  0.29180  0.13937  1.0000
  H   H1367     1.0  0.93008  0.30276  0.19877  1.0000
  H   H1368     1.0  0.93717  0.30368  0.32557  1.0000
  H   H1369     1.0  0.90527  0.31247  0.22965  1.0000
  H   H1370     1.0  0.91631  0.33655  0.20906  1.0000
  H   H1371     1.0  0.90486  0.31654  0.17478  1.0000
  H   H1372     1.0  0.94007  0.26732  0.05703  1.0000
  H   H1373     1.0  0.81713  0.24955  0.40639  1.0000
  H   H1374     1.0  0.91489  0.26667  0.44022  1.0000
  C   C764      1.0  0.92262  0.44924  0.45140  1.0000
  H   H1375     1.0  0.54576  0.46865  0.18103  1.0000
  S   S176      1.0  0.92668  0.41517  0.47252  1.0000
  H   H1376     1.0  0.92295  0.25434  0.50805  1.0000
  Fe  Fe83      1.0  0.93300  0.39403  0.51693  1.0000
  H   H1377     1.0  0.87077  0.31194  0.24480  1.0000
  H   H1378     1.0  0.91612  0.30014  0.45781  1.0000
  H   H1379     1.0  0.94945  0.44660  0.10524  1.0000
  H   H1380     1.0  0.91425  0.32001  0.42920  1.0000
  C   C765      1.0  0.87831  0.35566  0.43468  1.0000
  H   H1381     1.0  0.88087  0.32306  0.31735  1.0000
  H   H1382     1.0  0.88968  0.27699  0.41514  1.0000
  H   H1383     1.0  0.92548  0.24323  0.23112  1.0000
  H   H1384     1.0  0.93120  0.46912  0.16054  1.0000
  H   H1385     1.0  0.81137  0.26994  0.38971  1.0000
  H   H1386     1.0  0.92438  0.45509  0.11346  1.0000
  H   H1387     1.0  0.91430  0.28506  0.30843  1.0000
  H   H1388     1.0  0.95158  0.39885  0.41488  1.0000
  H   H1389     1.0  0.96117  0.37332  0.35111  1.0000
  C   C766      1.0  0.93368  0.25041  0.42840  1.0000
  C   C767      1.0  0.91215  0.30462  0.42715  1.0000
  C   C768      1.0  0.88029  0.32641  0.39873  1.0000
  H   H1390     1.0  0.89516  0.33442  0.38583  1.0000
  H   H1391     1.0  0.89709  0.30563  0.35487  1.0000
  C   C769      1.0  0.89073  0.29215  0.41617  1.0000
  C   C770      1.0  0.95403  0.24400  0.25286  1.0000
  H   H1392     1.0  0.83879  0.30186  0.38380  1.0000
  C   C771      1.0  0.85058  0.29689  0.39541  1.0000
  Fe  Fe84      1.0  0.86118  0.24435  0.20478  1.0000
  H   H1393     1.0  0.89425  0.36372  0.42938  1.0000
  H   H1394     1.0  0.94266  0.28248  0.38584  1.0000
  H   H1395     1.0  0.92983  0.23363  0.32849  1.0000
  C   C772      1.0  0.86653  0.31385  0.33114  1.0000
  C   C773      1.0  0.85596  0.29729  0.30060  1.0000
  H   H1396     1.0  0.87801  0.28091  0.51432  1.0000
  C   C774      1.0  0.92317  0.23487  0.35853  1.0000
  H   H1397     1.0  0.85163  0.29973  0.42934  1.0000
  C   C775      1.0  0.56005  0.47876  0.16900  1.0000
  H   H1398     1.0  0.84252  0.26997  0.35904  1.0000
  H   H1399     1.0  0.94920  0.44966  0.36341  1.0000
  H   H1400     1.0  0.95976  0.23295  0.42007  1.0000
  C   C776      1.0  0.91222  0.47680  0.11915  1.0000
  C   C777      1.0  0.92519  0.46870  0.45672  1.0000
  H   H1401     1.0  0.91732  0.47525  0.43688  1.0000
  H   H1402     1.0  0.82154  0.26935  0.44111  1.0000
  H   H1403     1.0  0.47394  0.47344  0.49448  1.0000
  H   H1404     1.0  0.89862  0.46673  0.13384  1.0000
  H   H1405     1.0  0.52304  0.45115  0.04841  1.0000
  C   C778      1.0  0.93428  0.23483  0.23931  1.0000
  H   H1406     1.0  0.95536  0.34753  0.43924  1.0000
  S   S177      1.0  0.86340  0.24083  0.36101  1.0000
  H   H1407     1.0  0.89710  0.24861  0.49878  1.0000
  C   C779      1.0  0.94473  0.32862  0.16090  1.0000
  H   H1408     1.0  0.94520  0.41614  0.34794  1.0000
  H   H1409     1.0  0.90148  0.24239  0.42378  1.0000
  H   H1410     1.0  0.93330  0.35739  0.39758  1.0000
  H   H1411     1.0  0.54963  0.46869  0.09123  1.0000
  H   H1412     1.0  0.95939  0.42711  0.03972  1.0000
  H   H1413     1.0  0.96028  0.25940  0.25568  1.0000
  H   H1414     1.0  0.90262  0.25248  0.06289  1.0000
  H   H1415     1.0  0.95973  0.29674  0.10590  1.0000
  H   H1416     1.0  0.94581  0.26206  0.44463  1.0000
  C   C780      1.0  0.96027  0.45817  0.08685  1.0000
  C   C781      1.0  0.91230  0.24409  0.06642  1.0000
  C   C782      1.0  0.93134  0.25343  0.04216  1.0000
  H   H1417     1.0  0.96207  0.36003  0.10781  1.0000
  H   H1418     1.0  0.95475  0.28114  0.31629  1.0000
  C   C783      1.0  0.95833  0.25504  0.37450  1.0000
  C   C784      1.0  0.95479  0.29396  0.13841  1.0000
  H   H1419     1.0  0.51030  0.47890  0.05995  1.0000
  H   H1420     1.0  0.94517  0.44439  0.30909  1.0000
  H   H1421     1.0  0.88748  0.42126  0.51291  1.0000
  H   H1422     1.0  0.90919  0.47746  0.08548  1.0000
  C   C785      1.0  0.52279  0.48037  0.03918  1.0000
  C   C786      1.0  0.95225  0.38164  0.36123  1.0000
  C   C787      1.0  0.95576  0.44619  0.33527  1.0000
  H   H1423     1.0  0.96152  0.25654  0.34085  1.0000
  C   C788      1.0  0.95970  0.42767  0.34179  1.0000
  Fe  Fe85      1.0  0.92526  0.34947  0.99485  1.0000
  C   C789      1.0  0.91077  0.41474  0.73795  1.0000
  C   C790      1.0  0.93418  0.25289  0.61765  1.0000
  Fe  Fe86      1.0  0.92572  0.36364  0.90365  1.0000
  S   S178      1.0  0.94466  0.39417  0.91894  1.0000
  S   S179      1.0  0.91461  0.35119  0.83963  1.0000
  C   C791      1.0  0.92372  0.24532  0.73286  1.0000
  H   H1424     1.0  0.89444  0.40776  0.73896  1.0000
  Fe  Fe87      1.0  0.92555  0.39033  0.97459  1.0000
  C   C792      1.0  0.93834  0.26103  0.75246  1.0000
  S   S180      1.0  0.94449  0.35100  0.94007  1.0000
  S   S181      1.0  0.90496  0.36015  0.95694  1.0000
  S   S182      1.0  0.85825  0.26024  0.65677  1.0000
  Fe  Fe88      1.0  0.94154  0.37888  0.60101  1.0000
  S   S183      1.0  0.91324  0.37590  0.56687  1.0000
  N   N42       1.0  0.94398  0.26187  0.96737  1.0000
  C   C793      1.0  0.94983  0.24461  0.96315  1.0000
  C   C794      1.0  0.86384  0.25116  0.82318  1.0000
  C   C795      1.0  0.95841  0.29730  0.99198  1.0000
  S   S184      1.0  0.94430  0.35241  0.57397  1.0000
  C   C796      1.0  0.86883  0.27723  0.61755  1.0000
  C   C797      1.0  0.86967  0.27151  0.57684  1.0000
  H   H1425     1.0  0.91141  0.27027  0.57305  1.0000
  C   C798      1.0  0.88547  0.30499  0.55573  1.0000
  C   C799      1.0  0.88509  0.31067  0.59660  1.0000
  C   C800      1.0  0.87645  0.29683  0.62726  1.0000
  H   H1426     1.0  0.86375  0.25641  0.56912  1.0000
  H   H1427     1.0  0.90528  0.26831  0.62726  1.0000
  H   H1428     1.0  0.87912  0.42723  0.58443  1.0000
  H   H1429     1.0  0.87563  0.30138  0.65849  1.0000
  C   C801      1.0  0.82215  0.27920  0.75465  1.0000
  C   C802      1.0  0.92964  0.47218  0.99841  1.0000
  H   H1430     1.0  0.87333  0.25516  0.85139  1.0000
  H   H1431     1.0  0.91380  0.31607  0.69001  1.0000
  C   C803      1.0  0.90698  0.45242  0.63317  1.0000
  C   C804      1.0  0.92815  0.43920  0.98877  1.0000
  C   C805      1.0  0.94694  0.44665  0.97133  1.0000
  H   H1432     1.0  0.92589  0.24661  0.64626  1.0000
  C   C806      1.0  0.84218  0.27732  0.75019  1.0000
  C   C807      1.0  0.88618  0.29426  0.74819  1.0000
  C   C808      1.0  0.92398  0.36260  0.79194  1.0000
  C   C809      1.0  0.91592  0.35319  0.75476  1.0000
  C   C810      1.0  0.92338  0.36136  0.71618  1.0000
  C   C811      1.0  0.93910  0.37907  0.71445  1.0000
  C   C812      1.0  0.90951  0.42723  0.58669  1.0000
  C   C813      1.0  0.93939  0.38052  0.79014  1.0000
  H   H1433     1.0  0.90377  0.33956  0.75586  1.0000
  H   H1434     1.0  0.91705  0.35393  0.68784  1.0000
  H   H1435     1.0  0.88936  0.26332  0.78598  1.0000
  C   C814      1.0  0.88210  0.40940  0.53594  1.0000
  S   S185      1.0  0.94950  0.38988  0.66697  1.0000
  H   H1436     1.0  0.95515  0.30349  0.96272  1.0000
  H   H1437     1.0  0.91705  0.40376  0.73050  1.0000
  H   H1438     1.0  0.91573  0.41589  0.58317  1.0000
  C   C815      1.0  0.89240  0.30176  0.90134  1.0000
  H   H1439     1.0  0.88077  0.40490  0.60156  1.0000
  H   H1440     1.0  0.95091  0.25399  0.55046  1.0000
  N   N43       1.0  0.91617  0.43762  0.62715  1.0000
  H   H1441     1.0  0.95377  0.43695  0.96091  1.0000
  C   C816      1.0  0.51941  0.45981  0.02385  1.0000
  C   C817      1.0  0.91001  0.42309  0.66185  1.0000
  H   H1442     1.0  0.94610  0.42391  0.60356  1.0000
  C   C818      1.0  0.87763  0.29468  0.86539  1.0000
  C   C819      1.0  0.93780  0.26767  0.92623  1.0000
  H   H1443     1.0  0.91685  0.31186  0.76583  1.0000
  C   C820      1.0  0.85599  0.28642  0.78756  1.0000
  C   C821      1.0  0.96160  0.27829  0.98398  1.0000
  C   C822      1.0  0.93630  0.27427  0.61526  1.0000
  H   H1444     1.0  0.86729  0.25709  0.75734  1.0000
  H   H1445     1.0  0.87946  0.28500  0.72115  1.0000
  H   H1446     1.0  0.95240  0.44444  0.52913  1.0000
  H   H1447     1.0  0.90879  0.29082  0.68256  1.0000
  H   H1448     1.0  0.95655  0.47864  0.53939  1.0000
  H   H1449     1.0  0.94844  0.34226  0.69716  1.0000
  H   H1450     1.0  0.88443  0.30194  0.93021  1.0000
  C   C823      1.0  0.95063  0.43485  0.62824  1.0000
  H   H1451     1.0  0.94272  0.45672  0.59806  1.0000
  H   H1452     1.0  0.93730  0.27502  0.75117  1.0000
  C   C824      1.0  0.89997  0.48138  0.60659  1.0000
  H   H1453     1.0  0.89100  0.44540  0.64013  1.0000
  H   H1454     1.0  0.91272  0.28703  0.75871  1.0000
  H   H1455     1.0  0.95437  0.34241  0.85585  1.0000
  C   C825      1.0  0.87448  0.26413  0.78667  1.0000
  H   H1456     1.0  0.89511  0.31113  0.81660  1.0000
  H   H1457     1.0  0.91139  0.24723  0.71691  1.0000
  H   H1458     1.0  0.91612  0.27110  0.85703  1.0000
  H   H1459     1.0  0.90090  0.29076  0.82950  1.0000
  H   H1460     1.0  0.86726  0.28012  0.87330  1.0000
  H   H1461     1.0  0.91541  0.43715  0.56033  1.0000
  C   C826      1.0  0.95708  0.46671  0.96794  1.0000
  H   H1462     1.0  0.82396  0.29456  0.75640  1.0000
  C   C827      1.0  0.91956  0.45212  0.00211  1.0000
  H   H1463     1.0  0.88384  0.30792  0.74203  1.0000
  H   H1464     1.0  0.92425  0.24547  0.59152  1.0000
  H   H1465     1.0  0.81461  0.27151  0.78280  1.0000
  H   H1466     1.0  0.86901  0.30419  0.86328  1.0000
  H   H1467     1.0  0.91505  0.41100  0.65606  1.0000
  C   C828      1.0  0.87774  0.28539  0.54587  1.0000
  S   S186      1.0  0.94398  0.37924  0.01662  1.0000
  H   H1468     1.0  0.84937  0.25217  0.82929  1.0000
  H   H1469     1.0  0.90296  0.31659  0.89531  1.0000
  H   H1470     1.0  0.96123  0.35716  0.76512  1.0000
  H   H1471     1.0  0.95896  0.40248  0.75057  1.0000
  H   H1472     1.0  0.94714  0.28233  0.59164  1.0000
  C   C829      1.0  0.95640  0.33246  0.83294  1.0000
  H   H1473     1.0  0.94893  0.42739  0.65850  1.0000
  H   H1474     1.0  0.91359  0.46129  0.66086  1.0000
  C   C830      1.0  0.90880  0.29903  0.74676  1.0000
  H   H1475     1.0  0.84772  0.27993  0.81580  1.0000
  N   N44       1.0  0.87601  0.28479  0.78743  1.0000
  H   H1476     1.0  0.94549  0.38808  0.81845  1.0000
  H   H1477     1.0  0.91838  0.29151  0.60432  1.0000
  C   C831      1.0  0.91664  0.27614  0.60430  1.0000
  H   H1478     1.0  0.93325  0.43814  0.70808  1.0000
  H   H1479     1.0  0.84859  0.28461  0.72087  1.0000
  H   H1480     1.0  0.95804  0.24289  0.99135  1.0000
  H   H1481     1.0  0.91632  0.42056  0.76910  1.0000
  C   C832      1.0  0.88833  0.29549  0.82386  1.0000
  C   C833      1.0  0.91640  0.30335  0.70268  1.0000
  H   H1482     1.0  0.85788  0.30188  0.78866  1.0000
  H   H1483     1.0  0.90072  0.29212  0.90625  1.0000
  H   H1484     1.0  0.94614  0.29514  0.01363  1.0000
  H   H1485     1.0  0.93246  0.30624  0.70247  1.0000
  H   H1486     1.0  0.88390  0.47405  0.61195  1.0000
  H   H1487     1.0  0.94122  0.28122  0.64579  1.0000
  H   H1488     1.0  0.92026  0.26811  0.99572  1.0000
  C   C834      1.0  0.92025  0.25192  0.90412  1.0000
  H   H1489     1.0  0.89092  0.32577  0.60433  1.0000
  H   H1490     1.0  0.81269  0.27274  0.72730  1.0000
  H   H1491     1.0  0.94349  0.45825  0.65242  1.0000
  H   H1492     1.0  0.48596  0.47196  0.68099  1.0000
  C   C835      1.0  0.95447  0.25887  0.77341  1.0000
  H   H1493     1.0  0.89364  0.41635  0.66304  1.0000
  C   C836      1.0  0.88689  0.41721  0.57992  1.0000
  S   S187      1.0  0.91526  0.41405  0.99637  1.0000
  C   C837      1.0  0.91698  0.43096  0.70591  1.0000
  H   H1494     1.0  0.93295  0.27998  0.92992  1.0000
  H   H1495     1.0  0.83945  0.26180  0.74758  1.0000
  H   H1496     1.0  0.91030  0.44145  0.71479  1.0000
  H   H1497     1.0  0.95064  0.27311  0.90510  1.0000
  H   H1498     1.0  0.91467  0.24353  0.98562  1.0000
  H   H1499     1.0  0.55746  0.47815  0.02067  1.0000
  H   H1500     1.0  0.93370  0.30899  0.86373  1.0000
  C   C838      1.0  0.94696  0.38865  0.75160  1.0000
  Fe  Fe89      1.0  0.96162  0.38110  0.95976  1.0000
  H   H1501     1.0  0.94689  0.33197  0.80552  1.0000
  C   C839      1.0  0.93831  0.44784  0.62652  1.0000
  H   H1502     1.0  0.95844  0.31213  0.87996  1.0000
  C   C840      1.0  0.92680  0.25681  0.99635  1.0000
  H   H1503     1.0  0.52859  0.46045  0.99645  1.0000
  H   H1504     1.0  0.92508  0.47494  0.59011  1.0000
  C   C841      1.0  0.94899  0.31252  0.85289  1.0000
  H   H1505     1.0  0.51890  0.47651  0.65469  1.0000
  C   C842      1.0  0.90930  0.46677  0.59669  1.0000
  H   H1506     1.0  0.49590  0.43455  0.99962  1.0000
  N   N45       1.0  0.95317  0.24916  0.61643  1.0000
  H   H1507     1.0  0.94899  0.30153  0.83016  1.0000
  C   C843      1.0  0.95591  0.24078  0.77440  1.0000
  H   H1508     1.0  0.90585  0.24594  0.84379  1.0000
  H   H1509     1.0  0.90203  0.45929  0.56801  1.0000
  H   H1510     1.0  0.49390  0.45696  0.98443  1.0000
  Fe  Fe90      1.0  0.91733  0.35064  0.53690  1.0000
  H   H1511     1.0  0.95513  0.24434  0.89592  1.0000
  H   H1512     1.0  0.93209  0.25880  0.84233  1.0000
  C   C844      1.0  0.94859  0.47962  0.98172  1.0000
  C   C845      1.0  0.91846  0.25734  0.85905  1.0000
  H   H1513     1.0  0.92178  0.23776  0.90446  1.0000
  H   H1514     1.0  0.95871  0.25667  0.68092  1.0000
  H   H1515     1.0  0.90621  0.25020  0.91961  1.0000
  H   H1516     1.0  0.90503  0.44656  0.01549  1.0000
  C   C846      1.0  0.49794  0.44918  0.01035  1.0000
  H   H1517     1.0  0.92279  0.48187  0.00871  1.0000
  S   S188      1.0  0.96095  0.39851  0.55263  1.0000
  H   H1518     1.0  0.50432  0.48177  0.61424  1.0000
  H   H1519     1.0  0.86589  0.40214  0.53181  1.0000
  H   H1520     1.0  0.88909  0.39882  0.52988  1.0000
  C   C847      1.0  0.88472  0.56151  0.06480  1.0000
  H   H1521     1.0  0.87776  0.55275  0.35087  1.0000
  S   S189      1.0  0.93502  0.52223  0.06329  1.0000
  Fe  Fe91      1.0  0.59645  0.69309  0.36145  1.0000
  S   S190      1.0  0.61863  0.72133  0.38377  1.0000
  S   S191      1.0  0.58992  0.66974  0.41182  1.0000
  Fe  Fe92      1.0  0.59681  0.70929  0.27289  1.0000
  S   S192      1.0  0.58191  0.70231  0.20919  1.0000
  Fe  Fe93      1.0  0.63404  0.72156  0.32439  1.0000
  H   H1522     1.0  0.78852  0.70563  0.17802  1.0000
  S   S193      1.0  0.61331  0.69256  0.30407  1.0000
  S   S194      1.0  0.57815  0.70770  0.32905  1.0000
  H   H1523     1.0  0.67928  0.68529  0.51067  1.0000
  H   H1524     1.0  0.95262  0.62212  0.38348  1.0000
  Fe  Fe94      1.0  0.85321  0.60741  0.11158  1.0000
  S   S195      1.0  0.88348  0.62672  0.09308  1.0000
  S   S196      1.0  0.83857  0.57603  0.09773  1.0000
  Fe  Fe95      1.0  0.84233  0.63952  0.14669  1.0000
  S   S197      1.0  0.87224  0.66203  0.13111  1.0000
  S   S198      1.0  0.81767  0.64504  0.18064  1.0000
  Fe  Fe96      1.0  0.86853  0.64633  0.07033  1.0000
  Fe  Fe97      1.0  0.88525  0.64080  0.15531  1.0000
  S   S199      1.0  0.91271  0.64397  0.19512  1.0000
  S   S200      1.0  0.83795  0.62587  0.08441  1.0000
  S   S201      1.0  0.85566  0.61945  0.17530  1.0000
  Fe  Fe98      1.0  0.68831  0.65073  0.20978  1.0000
  S   S202      1.0  0.65925  0.63062  0.23330  1.0000
  S   S203      1.0  0.70083  0.68291  0.20869  1.0000
  Fe  Fe99      1.0  0.70099  0.61895  0.17883  1.0000
  S   S204      1.0  0.67249  0.59581  0.19997  1.0000
  S   S205      1.0  0.72501  0.61504  0.13920  1.0000
  Fe  Fe100     1.0  0.65675  0.61439  0.17362  1.0000
  S   S206      1.0  0.62748  0.60803  0.13758  1.0000
  Fe  Fe101     1.0  0.67697  0.61378  0.25798  1.0000
  S   S207      1.0  0.67224  0.60067  0.32274  1.0000
  S   S208      1.0  0.68479  0.63620  0.14870  1.0000
  S   S209      1.0  0.70639  0.63520  0.23844  1.0000
  H   H1525     1.0  0.62306  0.70573  0.49098  1.0000
  Fe  Fe102     1.0  0.92485  0.56306  0.46222  1.0000
  S   S210      1.0  0.95486  0.53759  0.40340  1.0000
  H   H1526     1.0  0.83911  0.53182  0.26978  1.0000
  Fe  Fe103     1.0  0.92976  0.54559  0.37953  1.0000
  H   H1527     1.0  0.73325  0.66093  0.48419  1.0000
  S   S211      1.0  0.91693  0.54179  0.31401  1.0000
  Fe  Fe104     1.0  0.93683  0.52743  0.46086  1.0000
  H   H1528     1.0  0.75885  0.69623  0.48411  1.0000
  H   H1529     1.0  0.93233  0.60856  0.25283  1.0000
  S   S212      1.0  0.91053  0.53341  0.43509  1.0000
  S   S213      1.0  0.94206  0.57552  0.40478  1.0000
  H   H1530     1.0  0.78041  0.66881  0.16311  1.0000
  H   H1531     1.0  0.55573  0.61196  0.49439  1.0000
  C   C848      1.0  0.67872  0.61505  0.36785  1.0000
  C   C849      1.0  0.68144  0.63454  0.36687  1.0000
  C   C850      1.0  0.68461  0.64502  0.40396  1.0000
  C   C851      1.0  0.68516  0.63619  0.44231  1.0000
  C   C852      1.0  0.68348  0.61701  0.44306  1.0000
  C   C853      1.0  0.68006  0.60644  0.40606  1.0000
  H   H1532     1.0  0.68059  0.64140  0.33765  1.0000
  H   H1533     1.0  0.68638  0.65999  0.40287  1.0000
  H   H1534     1.0  0.68459  0.61024  0.47221  1.0000
  H   H1535     1.0  0.67821  0.59144  0.40708  1.0000
  C   C854      1.0  0.61345  0.59005  0.10169  1.0000
  C   C855      1.0  0.59606  0.59118  0.08442  1.0000
  C   C856      1.0  0.58461  0.57775  0.05502  1.0000
  H   H1536     1.0  0.53146  0.70479  0.49476  1.0000
  Fe  Fe105     1.0  0.92081  0.54075  0.03192  1.0000
  C   C857      1.0  0.61919  0.57509  0.08926  1.0000
  H   H1537     1.0  0.59153  0.60273  0.09314  1.0000
  H   H1538     1.0  0.57117  0.50206  0.12584  1.0000
  H   H1539     1.0  0.63243  0.57386  0.10231  1.0000
  H   H1540     1.0  0.61668  0.56999  0.46415  1.0000
  C   C858      1.0  0.92954  0.66333  0.22444  1.0000
  C   C859      1.0  0.92922  0.68188  0.22336  1.0000
  H   H1541     1.0  0.60039  0.72529  0.47196  1.0000
  H   H1542     1.0  0.91828  0.68484  0.20448  1.0000
  C   C860      1.0  0.55660  0.49189  0.13577  1.0000
  C   C861      1.0  0.79189  0.63504  0.16900  1.0000
  C   C862      1.0  0.78458  0.62934  0.12897  1.0000
  C   C863      1.0  0.76410  0.62311  0.12043  1.0000
  C   C864      1.0  0.75065  0.62236  0.15177  1.0000
  C   C865      1.0  0.75792  0.62751  0.19194  1.0000
  C   C866      1.0  0.77840  0.63404  0.20036  1.0000
  H   H1543     1.0  0.79475  0.63010  0.10450  1.0000
  H   H1544     1.0  0.75864  0.61897  0.08933  1.0000
  H   H1545     1.0  0.74774  0.62640  0.21662  1.0000
  H   H1546     1.0  0.78384  0.63835  0.23143  1.0000
  C   C867      1.0  0.67586  0.71632  0.29353  1.0000
  C   C868      1.0  0.95777  0.67461  0.27296  1.0000
  C   C869      1.0  0.70159  0.71478  0.24882  1.0000
  C   C870      1.0  0.69113  0.69517  0.24265  1.0000
  C   C871      1.0  0.67312  0.68599  0.26252  1.0000
  C   C872      1.0  0.66533  0.69665  0.28747  1.0000
  C   C873      1.0  0.64697  0.66745  0.16088  1.0000
  H   H1547     1.0  0.52072  0.50068  0.11935  1.0000
  H   H1548     1.0  0.66504  0.67083  0.25807  1.0000
  H   H1549     1.0  0.65142  0.68958  0.30258  1.0000
  C   C874      1.0  0.59458  0.70278  0.16256  1.0000
  C   C875      1.0  0.62388  0.70457  0.12518  1.0000
  C   C876      1.0  0.61464  0.70563  0.16248  1.0000
  H   H1550     1.0  0.67441  0.68347  0.44507  1.0000
  H   H1551     1.0  0.62300  0.70844  0.19126  1.0000
  C   C877      1.0  0.57024  0.64740  0.42038  1.0000
  C   C878      1.0  0.57090  0.63678  0.45612  1.0000
  C   C879      1.0  0.55508  0.61974  0.46637  1.0000
  C   C880      1.0  0.53809  0.61329  0.44138  1.0000
  C   C881      1.0  0.53746  0.62379  0.40531  1.0000
  C   C882      1.0  0.55353  0.64062  0.39457  1.0000
  H   H1552     1.0  0.58346  0.64203  0.47674  1.0000
  H   H1553     1.0  0.60897  0.68118  0.50280  1.0000
  H   H1554     1.0  0.55273  0.64864  0.36714  1.0000
  H   H1555     1.0  0.53206  0.63516  0.51803  1.0000
  H   H1556     1.0  0.66298  0.60330  0.09238  1.0000
  C   C883      1.0  0.84346  0.54605  0.06019  1.0000
  C   C884      1.0  0.85307  0.56421  0.07732  1.0000
  C   C885      1.0  0.87373  0.57205  0.07947  1.0000
  H   H1557     1.0  0.92263  0.65914  0.10232  1.0000
  C   C886      1.0  0.58985  0.59468  0.22391  1.0000
  H   H1558     1.0  0.81225  0.69951  0.11249  1.0000
  H   H1559     1.0  0.88122  0.58600  0.09308  1.0000
  C   C887      1.0  0.95430  0.54772  0.19777  1.0000
  C   C888      1.0  0.93449  0.54564  0.19447  1.0000
  C   C889      1.0  0.92325  0.54367  0.23038  1.0000
  C   C890      1.0  0.93166  0.54385  0.26987  1.0000
  H   H1560     1.0  0.94240  0.58855  0.21025  1.0000
  H   H1561     1.0  0.92790  0.54573  0.16427  1.0000
  H   H1562     1.0  0.90801  0.54209  0.22760  1.0000
  H   H1563     1.0  0.80198  0.56716  0.03787  1.0000
  H   H1564     1.0  0.54553  0.70110  0.39253  1.0000
  H   H1565     1.0  0.52436  0.61894  0.38578  1.0000
  H   H1566     1.0  0.57263  0.67038  0.27392  1.0000
  H   H1567     1.0  0.94513  0.61345  0.15383  1.0000
  H   H1568     1.0  0.94485  0.48627  0.07428  1.0000
  H   H1569     1.0  0.72406  0.59850  0.49226  1.0000
  C   C891      1.0  0.69412  0.72525  0.27468  1.0000
  H   H1570     1.0  0.53798  0.66825  0.33022  1.0000
  H   H1571     1.0  0.81376  0.66345  0.04843  1.0000
  C   C892      1.0  0.55845  0.49259  0.03069  1.0000
  S   S214      1.0  0.68762  0.64954  0.48838  1.0000
  H   H1572     1.0  0.84256  0.55663  0.26901  1.0000
  N   N46       1.0  0.60962  0.59390  0.40172  1.0000
  C   C893      1.0  0.59029  0.58597  0.42437  1.0000
  C   C894      1.0  0.62679  0.59852  0.43205  1.0000
  C   C895      1.0  0.61053  0.61229  0.38043  1.0000
  C   C896      1.0  0.61104  0.58034  0.36883  1.0000
  C   C897      1.0  0.60941  0.56011  0.38350  1.0000
  C   C898      1.0  0.57136  0.58250  0.39795  1.0000
  C   C899      1.0  0.63086  0.62514  0.36252  1.0000
  C   C900      1.0  0.62370  0.58546  0.47117  1.0000
  C   C901      1.0  0.60935  0.54746  0.34671  1.0000
  C   C902      1.0  0.55295  0.57163  0.42288  1.0000
  C   C903      1.0  0.62873  0.64027  0.33271  1.0000
  H   H1573     1.0  0.59027  0.59597  0.44961  1.0000
  H   H1574     1.0  0.58839  0.57222  0.44028  1.0000
  H   H1575     1.0  0.64021  0.59868  0.41594  1.0000
  H   H1576     1.0  0.63084  0.61330  0.44440  1.0000
  H   H1577     1.0  0.60621  0.62146  0.40218  1.0000
  H   H1578     1.0  0.59959  0.60903  0.35442  1.0000
  H   H1579     1.0  0.59990  0.57869  0.34382  1.0000
  H   H1580     1.0  0.62548  0.58641  0.35302  1.0000
  H   H1581     1.0  0.59569  0.55267  0.40088  1.0000
  H   H1582     1.0  0.62243  0.56118  0.40303  1.0000
  H   H1583     1.0  0.57040  0.59640  0.38816  1.0000
  H   H1584     1.0  0.57092  0.57387  0.37013  1.0000
  H   H1585     1.0  0.63794  0.61680  0.34534  1.0000
  H   H1586     1.0  0.64110  0.63279  0.38790  1.0000
  H   H1587     1.0  0.61398  0.58895  0.49308  1.0000
  H   H1588     1.0  0.62311  0.55403  0.32871  1.0000
  H   H1589     1.0  0.60854  0.53315  0.35805  1.0000
  H   H1590     1.0  0.59638  0.54544  0.32614  1.0000
  H   H1591     1.0  0.53950  0.57025  0.40443  1.0000
  H   H1592     1.0  0.55245  0.55700  0.43093  1.0000
  H   H1593     1.0  0.55281  0.57939  0.45184  1.0000
  H   H1594     1.0  0.62120  0.64886  0.34782  1.0000
  H   H1595     1.0  0.64356  0.65006  0.32264  1.0000
  H   H1596     1.0  0.62012  0.63330  0.30477  1.0000
  H   H1597     1.0  0.55360  0.68145  0.39761  1.0000
  C   C904      1.0  0.86376  0.54841  0.33259  1.0000
  H   H1598     1.0  0.85176  0.51775  0.21739  1.0000
  H   H1599     1.0  0.85524  0.53296  0.33882  1.0000
  C   C905      1.0  0.64208  0.66270  0.52430  1.0000
  C   C906      1.0  0.86847  0.55176  0.28663  1.0000
  N   N47       1.0  0.75702  0.69191  0.16674  1.0000
  C   C907      1.0  0.74297  0.67412  0.14557  1.0000
  C   C908      1.0  0.75544  0.68910  0.21308  1.0000
  C   C909      1.0  0.75026  0.70823  0.15591  1.0000
  H   H1600     1.0  0.77403  0.56180  0.51804  1.0000
  C   C910      1.0  0.75944  0.67174  0.23127  1.0000
  C   C911      1.0  0.75590  0.66991  0.27785  1.0000
  C   C912      1.0  0.94394  0.65986  0.24925  1.0000
  H   H1601     1.0  0.72810  0.66951  0.15980  1.0000
  H   H1602     1.0  0.74752  0.66167  0.15057  1.0000
  H   H1603     1.0  0.76602  0.70183  0.22936  1.0000
  H   H1604     1.0  0.74046  0.68778  0.22314  1.0000
  H   H1605     1.0  0.73412  0.70383  0.16119  1.0000
  H   H1606     1.0  0.77543  0.63994  0.49011  1.0000
  H   H1607     1.0  0.74943  0.65824  0.21719  1.0000
  H   H1608     1.0  0.77503  0.67347  0.22669  1.0000
  H   H1609     1.0  0.75856  0.65713  0.28992  1.0000
  H   H1610     1.0  0.76608  0.68284  0.29413  1.0000
  H   H1611     1.0  0.74040  0.66805  0.28462  1.0000
  C   C913      1.0  0.60783  0.56174  0.05943  1.0000
  C   C914      1.0  0.65832  0.67785  0.43854  1.0000
  C   C915      1.0  0.56030  0.64125  0.07144  1.0000
  H   H1612     1.0  0.84964  0.52808  0.48794  1.0000
  H   H1613     1.0  0.95818  0.54614  0.30339  1.0000
  H   H1614     1.0  0.86846  0.55087  0.50095  1.0000
  H   H1615     1.0  0.49130  0.70307  0.44801  1.0000
  H   H1616     1.0  0.66309  0.67552  0.37307  1.0000
  H   H1617     1.0  0.58923  0.64198  0.08674  1.0000
  S   S215      1.0  0.51442  0.54109  0.48140  1.0000
  N   N48       1.0  0.85195  0.54669  0.21348  1.0000
  C   C916      1.0  0.86033  0.53175  0.20232  1.0000
  C   C917      1.0  0.83167  0.54084  0.19353  1.0000
  C   C918      1.0  0.86439  0.56667  0.19869  1.0000
  C   C919      1.0  0.88705  0.57193  0.19673  1.0000
  C   C920      1.0  0.86070  0.52777  0.15548  1.0000
  C   C921      1.0  0.81958  0.55345  0.20377  1.0000
  C   C922      1.0  0.89769  0.59354  0.19091  1.0000
  C   C923      1.0  0.87486  0.51760  0.14617  1.0000
  C   C924      1.0  0.80075  0.54786  0.17727  1.0000
  H   H1618     1.0  0.82253  0.52570  0.20179  1.0000
  H   H1619     1.0  0.83287  0.54126  0.15920  1.0000
  H   H1620     1.0  0.85987  0.56926  0.16689  1.0000
  H   H1621     1.0  0.86158  0.57761  0.21793  1.0000
  H   H1622     1.0  0.89076  0.56473  0.17013  1.0000
  H   H1623     1.0  0.89323  0.56766  0.22487  1.0000
  H   H1624     1.0  0.84574  0.51841  0.14448  1.0000
  H   H1625     1.0  0.86524  0.54126  0.13738  1.0000
  H   H1626     1.0  0.82831  0.56889  0.19807  1.0000
  H   H1627     1.0  0.81489  0.55150  0.23649  1.0000
  H   H1628     1.0  0.89574  0.60137  0.21842  1.0000
  H   H1629     1.0  0.91366  0.59695  0.18691  1.0000
  H   H1630     1.0  0.89196  0.59873  0.16310  1.0000
  H   H1631     1.0  0.89032  0.52713  0.15330  1.0000
  H   H1632     1.0  0.87107  0.50412  0.16449  1.0000
  H   H1633     1.0  0.79114  0.53265  0.18304  1.0000
  H   H1634     1.0  0.79248  0.55715  0.18507  1.0000
  H   H1635     1.0  0.80434  0.54984  0.14389  1.0000
  H   H1636     1.0  0.52000  0.65779  0.46101  1.0000
  H   H1637     1.0  0.62858  0.65227  0.21075  1.0000
  H   H1638     1.0  0.65085  0.60388  0.50194  1.0000
  H   H1639     1.0  0.59947  0.65281  0.23737  1.0000
  C   C925      1.0  0.74003  0.67631  0.09834  1.0000
  H   H1640     1.0  0.61257  0.55041  0.04961  1.0000
  H   H1641     1.0  0.56257  0.62968  0.24055  1.0000
  H   H1642     1.0  0.56940  0.62040  0.10243  1.0000
  C   C926      1.0  0.74494  0.69067  0.50173  1.0000
  H   H1643     1.0  0.82750  0.53989  0.05875  1.0000
  C   C927      1.0  0.56101  0.69918  0.46851  1.0000
  H   H1644     1.0  0.76550  0.66605  0.46753  1.0000
  H   H1645     1.0  0.75405  0.68527  0.08344  1.0000
  H   H1646     1.0  0.87549  0.53555  0.21468  1.0000
  C   C928      1.0  0.73516  0.62872  0.50812  1.0000
  H   H1647     1.0  0.94081  0.62120  0.30047  1.0000
  C   C929      1.0  0.95678  0.59714  0.19633  1.0000
  H   H1648     1.0  0.56095  0.70078  0.50264  1.0000
  C   C930      1.0  0.56871  0.65467  0.27759  1.0000
  H   H1649     1.0  0.51265  0.50990  0.07419  1.0000
  H   H1650     1.0  0.72952  0.65908  0.04316  1.0000
  H   H1651     1.0  0.81063  0.65288  0.47414  1.0000
  H   H1652     1.0  0.94431  0.64564  0.25007  1.0000
  H   H1653     1.0  0.90768  0.59929  0.02966  1.0000
  C   C931      1.0  0.77818  0.69731  0.15325  1.0000
  C   C932      1.0  0.72883  0.69395  0.47543  1.0000
  C   C933      1.0  0.84941  0.54631  0.25978  1.0000
  C   C934      1.0  0.59049  0.56301  0.04209  1.0000
  H   H1654     1.0  0.73346  0.70940  0.46714  1.0000
  H   H1655     1.0  0.83035  0.59905  0.51841  1.0000
  H   H1656     1.0  0.95630  0.59816  0.32229  1.0000
  H   H1657     1.0  0.66535  0.69662  0.07448  1.0000
  H   H1658     1.0  0.87731  0.56727  0.28267  1.0000
  C   C935      1.0  0.92511  0.67086  0.07923  1.0000
  H   H1659     1.0  0.65274  0.70261  0.46028  1.0000
  C   C936      1.0  0.52552  0.51201  0.09517  1.0000
  C   C937      1.0  0.95349  0.59935  0.28865  1.0000
  H   H1660     1.0  0.53608  0.54332  0.09261  1.0000
  C   C938      1.0  0.52640  0.69669  0.46538  1.0000
  N   N49       1.0  0.54230  0.49104  0.06075  1.0000
  H   H1661     1.0  0.64306  0.60230  0.02876  1.0000
  H   H1662     1.0  0.61879  0.65080  0.47698  1.0000
  C   C939      1.0  0.73205  0.65694  0.07648  1.0000
  H   H1663     1.0  0.85522  0.55708  0.34290  1.0000
  Fe  Fe106     1.0  0.95668  0.54991  0.08831  1.0000
  C   C940      1.0  0.65572  0.68262  0.39329  1.0000
  C   C941      1.0  0.91802  0.59344  0.30678  1.0000
  H   H1664     1.0  0.58335  0.49329  0.07041  1.0000
  C   C942      1.0  0.57441  0.63628  0.10079  1.0000
  H   H1665     1.0  0.57134  0.57895  0.04196  1.0000
  H   H1666     1.0  0.60987  0.66385  0.13411  1.0000
  H   H1667     1.0  0.65276  0.58375  0.47384  1.0000
  H   H1668     1.0  0.91149  0.67418  0.07663  1.0000
  S   S216      1.0  0.94071  0.56796  0.06160  1.0000
  C   C943      1.0  0.73309  0.60800  0.51710  1.0000
  H   H1669     1.0  0.94329  0.63962  0.36279  1.0000
  C   C944      1.0  0.95260  0.60296  0.15279  1.0000
  C   C945      1.0  0.95150  0.54595  0.27319  1.0000
  H   H1670     1.0  0.66257  0.69836  0.38790  1.0000
  H   H1671     1.0  0.51089  0.67986  0.38648  1.0000
  H   H1672     1.0  0.58277  0.51679  0.05966  1.0000
  H   H1673     1.0  0.54901  0.50046  0.15064  1.0000
  H   H1674     1.0  0.55988  0.72745  0.45133  1.0000
  H   H1675     1.0  0.57647  0.66006  0.14086  1.0000
  C   C946      1.0  0.87499  0.54344  0.04698  1.0000
  H   H1676     1.0  0.79760  0.66376  0.44076  1.0000
  C   C947      1.0  0.56786  0.64541  0.23548  1.0000
  H   H1677     1.0  0.81471  0.69246  0.16557  1.0000
  C   C948      1.0  0.60974  0.65210  0.15571  1.0000
  C   C949      1.0  0.94354  0.63075  0.39041  1.0000
  H   H1678     1.0  0.54472  0.66029  0.45661  1.0000
  H   H1679     1.0  0.53055  0.68859  0.32332  1.0000
  H   H1680     1.0  0.57468  0.71936  0.41790  1.0000
  H   H1681     1.0  0.92100  0.59202  0.34019  1.0000
  H   H1682     1.0  0.74278  0.64963  0.07927  1.0000
  H   H1683     1.0  0.67514  0.64222  0.04265  1.0000
  C   C950      1.0  0.52258  0.67391  0.38287  1.0000
  H   H1684     1.0  0.68922  0.70551  0.05063  1.0000
  H   H1685     1.0  0.47602  0.68518  0.48330  1.0000
  H   H1686     1.0  0.63985  0.67769  0.38450  1.0000
  C   C951      1.0  0.57998  0.50244  0.04655  1.0000
  C   C952      1.0  0.49139  0.69500  0.47702  1.0000
  H   H1687     1.0  0.90063  0.56744  0.06678  1.0000
  H   H1688     1.0  0.84859  0.54983  0.46557  1.0000
  H   H1689     1.0  0.75229  0.71181  0.12240  1.0000
  H   H1690     1.0  0.55924  0.63724  0.15615  1.0000
  C   C953      1.0  0.95166  0.63223  0.46744  1.0000
  H   H1691     1.0  0.64676  0.67683  0.13422  1.0000
  H   H1692     1.0  0.55699  0.51976  0.08561  1.0000
  H   H1693     1.0  0.59877  0.59135  0.24887  1.0000
  S   S217      1.0  0.93801  0.50266  0.50209  1.0000
  H   H1694     1.0  0.95197  0.49747  0.12318  1.0000
  H   H1695     1.0  0.62696  0.67498  0.19836  1.0000
  H   H1696     1.0  0.55672  0.64882  0.21655  1.0000
  H   H1697     1.0  0.51246  0.66451  0.32040  1.0000
  C   C954      1.0  0.59326  0.69823  0.08746  1.0000
  C   C955      1.0  0.61321  0.70068  0.08756  1.0000
  H   H1698     1.0  0.91302  0.57904  0.29234  1.0000
  H   H1699     1.0  0.61314  0.64162  0.13609  1.0000
  H   H1700     1.0  0.55325  0.66984  0.52634  1.0000
  C   C956      1.0  0.58824  0.65305  0.21403  1.0000
  S   S218      1.0  0.51693  0.59306  0.45543  1.0000
  H   H1701     1.0  0.93745  0.68370  0.09085  1.0000
  H   H1702     1.0  0.77782  0.67454  0.11031  1.0000
  H   H1703     1.0  0.81112  0.67558  0.12439  1.0000
  H   H1704     1.0  0.78209  0.68276  0.50176  1.0000
  H   H1705     1.0  0.87383  0.51394  0.11282  1.0000
  C   C957      1.0  0.53520  0.66722  0.47017  1.0000
  H   H1706     1.0  0.64926  0.65450  0.14961  1.0000
  H   H1707     1.0  0.61250  0.62178  0.21137  1.0000
  H   H1708     1.0  0.71551  0.72193  0.23361  1.0000
  C   C958      1.0  0.62775  0.66172  0.18489  1.0000
  H   H1709     1.0  0.72604  0.68550  0.44641  1.0000
  H   H1710     1.0  0.71490  0.68972  0.49295  1.0000
  N   N50       1.0  0.64897  0.68373  0.51306  1.0000
  S   S219      1.0  0.66692  0.73010  0.32519  1.0000
  H   H1711     1.0  0.49840  0.67296  0.44738  1.0000
  H   H1712     1.0  0.65960  0.67556  0.18120  1.0000
  C   C959      1.0  0.95228  0.64392  0.42720  1.0000
  C   C960      1.0  0.57032  0.71983  0.45045  1.0000
  H   H1713     1.0  0.65250  0.66198  0.44200  1.0000
  H   H1714     1.0  0.55396  0.64856  0.29195  1.0000
  H   H1715     1.0  0.51768  0.53233  0.13116  1.0000
  H   H1716     1.0  0.50337  0.67493  0.50161  1.0000
  C   C961      1.0  0.78471  0.68066  0.14036  1.0000
  C   C962      1.0  0.67354  0.69592  0.04629  1.0000
  C   C963      1.0  0.80707  0.68760  0.13539  1.0000
  C   C964      1.0  0.59658  0.61644  0.21837  1.0000
  C   C965      1.0  0.52619  0.67384  0.33643  1.0000
  C   C966      1.0  0.65922  0.63301  0.04329  1.0000
  H   H1717     1.0  0.51727  0.65878  0.39372  1.0000
  C   C967      1.0  0.54298  0.51098  0.06984  1.0000
  N   N51       1.0  0.58960  0.64274  0.17505  1.0000
  H   H1718     1.0  0.56846  0.69702  0.12451  1.0000
  H   H1719     1.0  0.54507  0.63572  0.08373  1.0000
  H   H1720     1.0  0.57405  0.58843  0.23247  1.0000
  C   C968      1.0  0.67056  0.69290  0.52516  1.0000
  H   H1721     1.0  0.83843  0.66348  0.04316  1.0000
  H   H1722     1.0  0.92818  0.62092  0.39687  1.0000
  H   H1723     1.0  0.87753  0.54327  0.27881  1.0000
  H   H1724     1.0  0.78140  0.70726  0.12617  1.0000
  C   C969      1.0  0.53088  0.53155  0.11589  1.0000
  H   H1725     1.0  0.84371  0.57358  0.51050  1.0000
  H   H1726     1.0  0.59188  0.66855  0.20714  1.0000
  H   H1727     1.0  0.57144  0.69177  0.46241  1.0000
  S   S220      1.0  0.91014  0.58260  0.48823  1.0000
  H   H1728     1.0  0.59200  0.58790  0.19494  1.0000
  H   H1729     1.0  0.58486  0.69512  0.05878  1.0000
  C   C970      1.0  0.94842  0.48358  0.10682  1.0000
  H   H1730     1.0  0.56870  0.48756  0.19515  1.0000
  H   H1731     1.0  0.65479  0.63227  0.07627  1.0000
  H   H1732     1.0  0.54303  0.51881  0.04037  1.0000
  C   C971      1.0  0.54159  0.68650  0.40623  1.0000
  N   N52       1.0  0.54052  0.68725  0.45275  1.0000
  H   H1733     1.0  0.58789  0.61484  0.15465  1.0000
  H   H1734     1.0  0.63938  0.70668  0.12557  1.0000
  H   H1735     1.0  0.59438  0.62238  0.24825  1.0000
  C   C972      1.0  0.58400  0.69929  0.12479  1.0000
  C   C973      1.0  0.66971  0.60506  0.06135  1.0000
  C   C974      1.0  0.50458  0.68335  0.47267  1.0000
  C   C975      1.0  0.58498  0.62163  0.18275  1.0000
  C   C976      1.0  0.57446  0.64464  0.14456  1.0000
  C   C977      1.0  0.93648  0.60703  0.28540  1.0000
  H   H1736     1.0  0.90602  0.59915  0.30364  1.0000
  H   H1737     1.0  0.55994  0.63462  0.04077  1.0000
  H   H1738     1.0  0.72007  0.62903  0.50502  1.0000
  H   H1739     1.0  0.56894  0.61395  0.18830  1.0000
  H   H1740     1.0  0.57959  0.65184  0.29851  1.0000
  H   H1741     1.0  0.72925  0.68345  0.09309  1.0000
  C   C978      1.0  0.95630  0.65971  0.51146  1.0000
  H   H1742     1.0  0.52646  0.70781  0.44210  1.0000
  C   C979      1.0  0.94324  0.69672  0.24663  1.0000
  H   H1743     1.0  0.93988  0.65385  0.51385  1.0000
  H   H1744     1.0  0.71785  0.64756  0.09008  1.0000
  C   C980      1.0  0.64729  0.68690  0.46715  1.0000
  C   C981      1.0  0.78431  0.65461  0.50112  1.0000
  H   H1745     1.0  0.67677  0.70800  0.51354  1.0000
  H   H1746     1.0  0.63168  0.68119  0.45632  1.0000
  H   H1747     1.0  0.74240  0.63302  0.47779  1.0000
  H   H1748     1.0  0.93582  0.62486  0.47572  1.0000
  H   H1749     1.0  0.54268  0.53368  0.13961  1.0000
  H   H1750     1.0  0.66910  0.59077  0.05108  1.0000
  C   C982      1.0  0.64319  0.58854  0.49359  1.0000
  H   H1751     1.0  0.94287  0.66025  0.04252  1.0000
  C   C983      1.0  0.85246  0.54344  0.49397  1.0000
  C   C984      1.0  0.77179  0.66751  0.49955  1.0000
  H   H1752     1.0  0.94275  0.59004  0.13611  1.0000
  H   H1753     1.0  0.49662  0.70527  0.50308  1.0000
  H   H1754     1.0  0.94795  0.58431  0.27731  1.0000
  S   S221      1.0  0.94954  0.55640  0.49219  1.0000
  C   C985      1.0  0.76068  0.72726  0.17968  1.0000
  C   C986      1.0  0.67219  0.67538  0.03881  1.0000
  H   H1755     1.0  0.95989  0.66992  0.48481  1.0000
  H   H1756     1.0  0.68545  0.61482  0.06369  1.0000
  H   H1757     1.0  0.47874  0.49376  0.38775  1.0000
  H   H1758     1.0  0.84608  0.63383  0.52450  1.0000
  H   H1759     1.0  0.62191  0.62725  0.05537  1.0000
  H   H1760     1.0  0.84683  0.52175  0.03134  1.0000
  C   C987      1.0  0.93005  0.66460  0.03739  1.0000
  S   S222      1.0  0.62529  0.69833  0.04201  1.0000
  C   C988      1.0  0.46276  0.49105  0.39006  1.0000
  H   H1761     1.0  0.81024  0.56441  0.51849  1.0000
  H   H1762     1.0  0.64376  0.65987  0.06598  1.0000
  H   H1763     1.0  0.80652  0.60103  0.03169  1.0000
  C   C989      1.0  0.85439  0.53577  0.04481  1.0000
  C   C990      1.0  0.80227  0.66262  0.47326  1.0000
  H   H1764     1.0  0.96066  0.62529  0.22023  1.0000
  H   H1765     1.0  0.94342  0.65309  0.43069  1.0000
  C   C991      1.0  0.73930  0.66910  0.51304  1.0000
  H   H1766     1.0  0.65221  0.65618  0.51154  1.0000
  H   H1767     1.0  0.82432  0.53715  0.52272  1.0000
  H   H1768     1.0  0.94293  0.71103  0.24536  1.0000
  H   H1769     1.0  0.81224  0.67701  0.48410  1.0000
  H   H1770     1.0  0.95686  0.62054  0.45911  1.0000
  C   C992      1.0  0.65840  0.61288  0.03046  1.0000
  C   C993      1.0  0.95763  0.69322  0.27153  1.0000
  H   H1771     1.0  0.91582  0.49126  0.13278  1.0000
  H   H1772     1.0  0.75600  0.72558  0.21247  1.0000
  C   C994      1.0  0.65041  0.66128  0.03474  1.0000
  Fe  Fe107     1.0  0.51596  0.57001  0.50363  1.0000
  H   H1773     1.0  0.56527  0.65705  0.06702  1.0000
  H   H1774     1.0  0.67951  0.67122  0.06566  1.0000
  C   C995      1.0  0.61885  0.69490  0.51639  1.0000
  H   H1775     1.0  0.94990  0.60110  0.51544  1.0000
  C   C996      1.0  0.82655  0.66705  0.02745  1.0000
  H   H1776     1.0  0.74781  0.60679  0.51821  1.0000
  C   C997      1.0  0.62081  0.65019  0.51097  1.0000
  H   H1777     1.0  0.62680  0.62376  0.51112  1.0000
  C   C998      1.0  0.53740  0.66580  0.51777  1.0000
  C   C999      1.0  0.61571  0.62916  0.52318  1.0000
  C   C1000     1.0  0.58901  0.73178  0.47439  1.0000
  H   H1778     1.0  0.60097  0.62027  0.51033  1.0000
  H   H1779     1.0  0.60001  0.73145  0.02974  1.0000
  H   H1780     1.0  0.77697  0.73168  0.17873  1.0000
  H   H1781     1.0  0.54612  0.72140  0.03997  1.0000
  S   S223      1.0  0.56380  0.53761  0.52084  1.0000
  H   H1782     1.0  0.91722  0.65181  0.02740  1.0000
  H   H1783     1.0  0.64046  0.57983  0.52233  1.0000
  H   H1784     1.0  0.59741  0.65490  0.81424  1.0000
  C   C1001     1.0  0.92262  0.57436  0.73044  1.0000
  S   S224      1.0  0.53917  0.57342  0.55272  1.0000
  H   H1785     1.0  0.86595  0.54185  0.95278  1.0000
  Fe  Fe108     1.0  0.51424  0.55713  0.59515  1.0000
  S   S225      1.0  0.51160  0.56658  0.66087  1.0000
  H   H1786     1.0  0.56752  0.54681  0.69454  1.0000
  S   S226      1.0  0.51346  0.52783  0.57892  1.0000
  H   H1787     1.0  0.62845  0.62670  0.93406  1.0000
  Fe  Fe109     1.0  0.52542  0.53373  0.88857  1.0000
  S   S227      1.0  0.49663  0.53261  0.91501  1.0000
  S   S228      1.0  0.52997  0.52625  0.82223  1.0000
  Fe  Fe110     1.0  0.54742  0.54314  0.97275  1.0000
  H   H1788     1.0  0.83831  0.55718  0.69491  1.0000
  C   C1002     1.0  0.52650  0.64531  0.53339  1.0000
  Fe  Fe111     1.0  0.50288  0.51600  0.96837  1.0000
  C   C1003     1.0  0.80616  0.57452  0.00750  1.0000
  Fe  Fe112     1.0  0.51603  0.55901  0.94965  1.0000
  S   S229      1.0  0.50518  0.58312  0.95913  1.0000
  S   S230      1.0  0.53062  0.51536  0.93975  1.0000
  S   S231      1.0  0.54430  0.56143  0.91929  1.0000
  Fe  Fe113     1.0  0.62244  0.68725  0.88742  1.0000
  S   S232      1.0  0.60163  0.69949  0.85729  1.0000
  S   S233      1.0  0.63839  0.66953  0.85802  1.0000
  Fe  Fe114     1.0  0.58178  0.68553  0.91034  1.0000
  S   S234      1.0  0.54931  0.66916  0.90028  1.0000
  S   S235      1.0  0.60157  0.67180  0.93794  1.0000
  Fe  Fe115     1.0  0.66445  0.60566  0.61555  1.0000
  S   S236      1.0  0.65489  0.62780  0.58559  1.0000
  S   S237      1.0  0.64340  0.57514  0.62415  1.0000
  Fe  Fe116     1.0  0.70624  0.63359  0.63340  1.0000
  S   S238      1.0  0.69935  0.65800  0.60493  1.0000
  S   S239      1.0  0.73672  0.64227  0.66429  1.0000
  Fe  Fe117     1.0  0.67065  0.64646  0.63892  1.0000
  S   S240      1.0  0.65563  0.66547  0.66585  1.0000
  Fe  Fe118     1.0  0.68414  0.63737  0.55399  1.0000
  S   S241      1.0  0.67847  0.62357  0.67116  1.0000
  S   S242      1.0  0.69280  0.61363  0.58013  1.0000
  Fe  Fe119     1.0  0.87830  0.64763  0.71369  1.0000
  S   S243      1.0  0.88654  0.62584  0.74918  1.0000
  S   S244      1.0  0.90286  0.67522  0.69630  1.0000
  Fe  Fe120     1.0  0.83586  0.62022  0.69677  1.0000
  S   S245      1.0  0.84145  0.59653  0.73172  1.0000
  S   S246      1.0  0.80748  0.61147  0.65742  1.0000
  Fe  Fe121     1.0  0.85714  0.61886  0.77936  1.0000
  S   S247      1.0  0.85262  0.60877  0.84661  1.0000
  Fe  Fe122     1.0  0.87032  0.60561  0.69867  1.0000
  S   S248      1.0  0.88214  0.58385  0.67307  1.0000
  S   S249      1.0  0.84966  0.64221  0.74682  1.0000
  S   S250      1.0  0.86400  0.62783  0.66111  1.0000
  C   C1004     1.0  0.82252  0.55077  0.68528  1.0000
  C   C1005     1.0  0.90377  0.56924  0.56913  1.0000
  C   C1006     1.0  0.89732  0.56973  0.60977  1.0000
  C   C1007     1.0  0.89140  0.58462  0.62248  1.0000
  C   C1008     1.0  0.89255  0.59937  0.59451  1.0000
  H   H1789     1.0  0.78339  0.58607  0.00892  1.0000
  H   H1790     1.0  0.83229  0.68275  0.02124  1.0000
  H   H1791     1.0  0.89657  0.55830  0.63121  1.0000
  H   H1792     1.0  0.88816  0.61098  0.60385  1.0000
  H   H1793     1.0  0.81341  0.55235  0.71111  1.0000
  C   C1009     1.0  0.75556  0.63254  0.66347  1.0000
  C   C1010     1.0  0.77235  0.64075  0.68906  1.0000
  C   C1011     1.0  0.78826  0.63439  0.68791  1.0000
  C   C1012     1.0  0.78760  0.61970  0.66098  1.0000
  C   C1013     1.0  0.77077  0.61140  0.63549  1.0000
  C   C1014     1.0  0.75478  0.61769  0.63687  1.0000
  H   H1794     1.0  0.77312  0.65226  0.70973  1.0000
  H   H1795     1.0  0.80110  0.64094  0.70763  1.0000
  H   H1796     1.0  0.77007  0.59998  0.61468  1.0000
  H   H1797     1.0  0.74193  0.61113  0.61727  1.0000
  C   C1015     1.0  0.64242  0.66818  0.80423  1.0000
  C   C1016     1.0  0.63704  0.67929  0.77489  1.0000
  C   C1017     1.0  0.64103  0.67818  0.73266  1.0000
  C   C1018     1.0  0.65043  0.66597  0.71925  1.0000
  C   C1019     1.0  0.65541  0.65454  0.74845  1.0000
  H   H1798     1.0  0.63011  0.68899  0.78483  1.0000
  H   H1799     1.0  0.63709  0.68707  0.71036  1.0000
  C   C1020     1.0  0.51871  0.60705  0.94445  1.0000
  C   C1021     1.0  0.50834  0.61932  0.93896  1.0000
  C   C1022     1.0  0.51802  0.63827  0.92563  1.0000
  C   C1023     1.0  0.53833  0.64543  0.91892  1.0000
  C   C1024     1.0  0.54895  0.63334  0.92512  1.0000
  C   C1025     1.0  0.53910  0.61405  0.93758  1.0000
  H   H1800     1.0  0.49262  0.61402  0.94431  1.0000
  H   H1801     1.0  0.50971  0.64747  0.92081  1.0000
  H   H1802     1.0  0.56460  0.63871  0.91960  1.0000
  H   H1803     1.0  0.54720  0.60464  0.94186  1.0000
  C   C1026     1.0  0.89108  0.57984  0.95677  1.0000
  C   C1027     1.0  0.86932  0.64652  0.96273  1.0000
  C   C1028     1.0  0.87022  0.65509  0.92352  1.0000
  C   C1029     1.0  0.86523  0.64378  0.88749  1.0000
  C   C1030     1.0  0.85946  0.62382  0.89048  1.0000
  C   C1031     1.0  0.85868  0.61534  0.92969  1.0000
  C   C1032     1.0  0.86353  0.62658  0.96565  1.0000
  H   H1804     1.0  0.87470  0.67052  0.92100  1.0000
  H   H1805     1.0  0.86585  0.65049  0.85746  1.0000
  H   H1806     1.0  0.85404  0.59995  0.93238  1.0000
  H   H1807     1.0  0.86278  0.61981  0.99566  1.0000
  C   C1033     1.0  0.62131  0.56585  0.59486  1.0000
  C   C1034     1.0  0.61476  0.54660  0.58317  1.0000
  H   H1808     1.0  0.95682  0.69582  0.91188  1.0000
  H   H1809     1.0  0.64260  0.66867  0.01519  1.0000
  C   C1035     1.0  0.59172  0.56818  0.56276  1.0000
  C   C1036     1.0  0.60986  0.57679  0.58431  1.0000
  H   H1810     1.0  0.62348  0.53807  0.59120  1.0000
  H   H1811     1.0  0.91554  0.56615  0.91491  1.0000
  H   H1812     1.0  0.79421  0.67792  0.57372  1.0000
  H   H1813     1.0  0.61483  0.59170  0.59316  1.0000
  C   C1037     1.0  0.51783  0.55599  0.70552  1.0000
  C   C1038     1.0  0.51280  0.56062  0.74462  1.0000
  C   C1039     1.0  0.51677  0.55188  0.78071  1.0000
  C   C1040     1.0  0.52574  0.53840  0.77799  1.0000
  C   C1041     1.0  0.53108  0.53402  0.73896  1.0000
  C   C1042     1.0  0.52729  0.54289  0.70290  1.0000
  H   H1814     1.0  0.51251  0.55521  0.81061  1.0000
  H   H1815     1.0  0.53802  0.52358  0.73660  1.0000
  H   H1816     1.0  0.53142  0.53937  0.67300  1.0000
  H   H1817     1.0  0.65898  0.60668  0.77258  1.0000
  H   H1818     1.0  0.77464  0.61042  0.99192  1.0000
  C   C1043     1.0  0.94232  0.69125  0.71607  1.0000
  C   C1044     1.0  0.92305  0.68290  0.73112  1.0000
  C   C1045     1.0  0.92001  0.68173  0.77376  1.0000
  C   C1046     1.0  0.77483  0.56304  0.55227  1.0000
  Fe  Fe123     1.0  0.61454  0.72460  0.90093  1.0000
  H   H1819     1.0  0.94472  0.69231  0.68308  1.0000
  H   H1820     1.0  0.90517  0.67545  0.78554  1.0000
  H   H1821     1.0  0.74432  0.61885  0.98245  1.0000
  Fe  Fe124     1.0  0.53659  0.54409  0.53282  1.0000
  S   S251      1.0  0.59279  0.71150  0.95146  1.0000
  C   C1047     1.0  0.55124  0.62979  0.70587  1.0000
  H   H1822     1.0  0.82671  0.63142  0.00208  1.0000
  H   H1823     1.0  0.90959  0.52370  0.85110  1.0000
  H   H1824     1.0  0.64639  0.61761  0.88115  1.0000
  H   H1825     1.0  0.56354  0.61556  0.81925  1.0000
  C   C1048     1.0  0.83856  0.59126  0.58034  1.0000
  H   H1826     1.0  0.61584  0.71552  0.56020  1.0000
  H   H1827     1.0  0.79017  0.69934  0.62704  1.0000
  H   H1828     1.0  0.54130  0.60588  0.66276  1.0000
  H   H1829     1.0  0.61520  0.62754  0.55738  1.0000
  C   C1049     1.0  0.93605  0.68984  0.80109  1.0000
  H   H1830     1.0  0.48156  0.49738  0.63090  1.0000
  H   H1831     1.0  0.84683  0.56337  0.62140  1.0000
  H   H1832     1.0  0.89916  0.60998  0.53204  1.0000
  C   C1050     1.0  0.95502  0.68708  0.55498  1.0000
  H   H1833     1.0  0.64733  0.70881  0.54340  1.0000
  H   H1834     1.0  0.76558  0.57113  0.56187  1.0000
  H   H1835     1.0  0.85972  0.57279  0.55192  1.0000
  C   C1051     1.0  0.61110  0.63805  0.00211  1.0000
  C   C1052     1.0  0.51170  0.48659  0.64469  1.0000
  S   S252      1.0  0.87560  0.66102  0.00743  1.0000
  H   H1836     1.0  0.48082  0.52313  0.80912  1.0000
  H   H1837     1.0  0.83029  0.53382  0.96938  1.0000
  N   N53       1.0  0.60198  0.57464  0.72793  1.0000
  Fe  Fe125     1.0  0.61434  0.69870  0.97545  1.0000
  H   H1838     1.0  0.73620  0.64052  0.56911  1.0000
  H   H1839     1.0  0.82595  0.54342  0.60420  1.0000
  C   C1053     1.0  0.95530  0.69836  0.78618  1.0000
  H   H1840     1.0  0.66262  0.64507  0.73863  1.0000
  H   H1841     1.0  0.94629  0.64169  0.82411  1.0000
  C   C1054     1.0  0.47555  0.50266  0.73420  1.0000
  C   C1055     1.0  0.89886  0.59881  0.55381  1.0000
  S   S253      1.0  0.49093  0.55629  0.54776  1.0000
  H   H1842     1.0  0.55665  0.58210  0.79537  1.0000
  H   H1843     1.0  0.67155  0.59395  0.74500  1.0000
  H   H1844     1.0  0.50544  0.57071  0.74694  1.0000
  H   H1845     1.0  0.94806  0.72164  0.87517  1.0000
  H   H1846     1.0  0.61015  0.65493  0.52704  1.0000
  H   H1847     1.0  0.61234  0.55772  0.68686  1.0000
  C   C1056     1.0  0.84417  0.56638  0.54058  1.0000
  H   H1848     1.0  0.57437  0.51701  0.69458  1.0000
  C   C1057     1.0  0.92524  0.66184  0.94186  1.0000
  H   H1849     1.0  0.67220  0.67824  0.58350  1.0000
  H   H1850     1.0  0.84437  0.53790  0.55722  1.0000
  H   H1851     1.0  0.95877  0.69744  0.52868  1.0000
  H   H1852     1.0  0.74676  0.69936  0.53015  1.0000
  C   C1058     1.0  0.93071  0.70228  0.92311  1.0000
  C   C1059     1.0  0.93035  0.65634  0.89856  1.0000
  C   C1060     1.0  0.91181  0.64677  0.87221  1.0000
  H   H1853     1.0  0.76864  0.69079  0.56262  1.0000
  H   H1854     1.0  0.93186  0.60125  0.67172  1.0000
  H   H1855     1.0  0.52333  0.50112  0.64123  1.0000
  H   H1856     1.0  0.60992  0.51227  0.02370  1.0000
  H   H1857     1.0  0.82884  0.59514  0.60145  1.0000
  H   H1858     1.0  0.92062  0.64841  0.96049  1.0000
  H   H1859     1.0  0.90788  0.55747  0.55944  1.0000
  H   H1860     1.0  0.93348  0.68979  0.83377  1.0000
  H   H1861     1.0  0.49417  0.58063  0.82169  1.0000
  H   H1862     1.0  0.94016  0.66887  0.88099  1.0000
  C   C1061     1.0  0.46287  0.51630  0.67597  1.0000
  H   H1863     1.0  0.91169  0.66531  0.93981  1.0000
  H   H1864     1.0  0.85747  0.63184  0.57316  1.0000
  H   H1865     1.0  0.66552  0.61379  0.00007  1.0000
  H   H1866     1.0  0.82200  0.57614  0.65492  1.0000
  H   H1867     1.0  0.50797  0.57655  0.86517  1.0000
  H   H1868     1.0  0.92127  0.69186  0.90024  1.0000
  H   H1869     1.0  0.53547  0.60618  0.85303  1.0000
  H   H1870     1.0  0.50513  0.49166  0.70637  1.0000
  H   H1871     1.0  0.56368  0.71107  0.02499  1.0000
  H   H1872     1.0  0.90153  0.63382  0.88811  1.0000
  H   H1873     1.0  0.90438  0.65706  0.86593  1.0000
  H   H1874     1.0  0.91982  0.60901  0.71110  1.0000
  C   C1062     1.0  0.64332  0.62701  0.94302  1.0000
  H   H1875     1.0  0.93814  0.64615  0.90227  1.0000
  C   C1063     1.0  0.92331  0.63908  0.66273  1.0000
  H   H1876     1.0  0.94505  0.63050  0.63306  1.0000
  H   H1877     1.0  0.75799  0.63732  0.55611  1.0000
  H   H1878     1.0  0.59350  0.70180  0.53240  1.0000
  C   C1064     1.0  0.49674  0.48684  0.67695  1.0000
  C   C1065     1.0  0.65494  0.62899  0.90327  1.0000
  H   H1879     1.0  0.80212  0.54750  0.55915  1.0000
  H   H1880     1.0  0.93502  0.63604  0.74980  1.0000
  C   C1066     1.0  0.50507  0.58777  0.84645  1.0000
  H   H1881     1.0  0.56095  0.56368  0.82613  1.0000
  H   H1882     1.0  0.77815  0.64350  0.98122  1.0000
  C   C1067     1.0  0.65143  0.65566  0.79066  1.0000
  H   H1883     1.0  0.52333  0.61067  0.72993  1.0000
  H   H1884     1.0  0.54407  0.60771  0.75292  1.0000
  H   H1885     1.0  0.56474  0.62422  0.65067  1.0000
  H   H1886     1.0  0.63377  0.68672  0.56806  1.0000
  N   N54       1.0  0.53722  0.63122  0.77835  1.0000
  H   H1887     1.0  0.80107  0.58834  0.55366  1.0000
  H   H1888     1.0  0.52903  0.59292  0.80562  1.0000
  H   H1889     1.0  0.59313  0.49109  0.99824  1.0000
  H   H1890     1.0  0.89209  0.60736  0.82528  1.0000
  H   H1891     1.0  0.87819  0.56738  0.85507  1.0000
  H   H1892     1.0  0.53172  0.67558  0.53413  1.0000
  Fe  Fe126     1.0  0.95954  0.57170  0.00496  1.0000
  H   H1893     1.0  0.91726  0.61097  0.81348  1.0000
  H   H1894     1.0  0.85276  0.59522  0.59784  1.0000
  H   H1895     1.0  0.91572  0.64250  0.84194  1.0000
  H   H1896     1.0  0.56531  0.52119  0.64453  1.0000
  H   H1897     1.0  0.56308  0.60764  0.69261  1.0000
  C   C1068     1.0  0.80980  0.56313  0.55286  1.0000
  H   H1898     1.0  0.56973  0.58792  0.84442  1.0000
  H   H1899     1.0  0.95273  0.59352  0.73044  1.0000
  H   H1900     1.0  0.91094  0.60423  0.88734  1.0000
  H   H1901     1.0  0.48064  0.49111  0.74489  1.0000
  H   H1902     1.0  0.79600  0.57507  0.60085  1.0000
  H   H1903     1.0  0.50683  0.61412  0.79165  1.0000
  C   C1069     1.0  0.93429  0.60844  0.70246  1.0000
  H   H1904     1.0  0.91162  0.62460  0.66124  1.0000
  H   H1905     1.0  0.55943  0.72903  0.99247  1.0000
  S   S254      1.0  0.48199  0.49026  0.00562  1.0000
  C   C1070     1.0  0.91318  0.58930  0.96967  1.0000
  C   C1071     1.0  0.91637  0.60515  0.00147  1.0000
  H   H1906     1.0  0.89944  0.54762  0.94567  1.0000
  H   H1907     1.0  0.88375  0.57198  0.98493  1.0000
  H   H1908     1.0  0.91821  0.57832  0.98403  1.0000
  C   C1072     1.0  0.78566  0.68370  0.63326  1.0000
  C   C1073     1.0  0.93816  0.59465  0.73446  1.0000
  H   H1909     1.0  0.93041  0.66564  0.62747  1.0000
  C   C1074     1.0  0.74668  0.64252  0.54321  1.0000
  H   H1910     1.0  0.93223  0.61146  0.01052  1.0000
  H   H1911     1.0  0.93873  0.67992  0.55663  1.0000
  C   C1075     1.0  0.76326  0.67519  0.56979  1.0000
  H   H1912     1.0  0.83091  0.62487  0.56922  1.0000
  C   C1076     1.0  0.90292  0.60021  0.82342  1.0000
  H   H1913     1.0  0.92283  0.56856  0.69906  1.0000
  H   H1914     1.0  0.47464  0.53023  0.68493  1.0000
  C   C1077     1.0  0.93870  0.72190  0.90173  1.0000
  H   H1915     1.0  0.92128  0.70322  0.94887  1.0000
  C   C1078     1.0  0.84238  0.60466  0.54179  1.0000
  H   H1916     1.0  0.64128  0.61288  0.95691  1.0000
  C   C1079     1.0  0.92017  0.65042  0.62551  1.0000
  H   H1917     1.0  0.95458  0.65313  0.65869  1.0000
  C   C1080     1.0  0.69726  0.70455  0.58092  1.0000
  H   H1918     1.0  0.58058  0.62951  0.98201  1.0000
  H   H1919     1.0  0.61646  0.64472  0.97177  1.0000
  H   H1920     1.0  0.92621  0.72567  0.88979  1.0000
  S   S255      1.0  0.63703  0.71323  0.92727  1.0000
  H   H1921     1.0  0.92570  0.56472  0.75355  1.0000
  H   H1922     1.0  0.82124  0.60500  0.95778  1.0000
  N   N55       1.0  0.83048  0.57003  0.57114  1.0000
  C   C1081     1.0  0.67541  0.69307  0.57216  1.0000
  H   H1923     1.0  0.66680  0.69949  0.59070  1.0000
  C   C1082     1.0  0.79612  0.57362  0.56689  1.0000
  C   C1083     1.0  0.56056  0.72449  0.02496  1.0000
  C   C1084     1.0  0.95016  0.64011  0.73721  1.0000
  H   H1924     1.0  0.76874  0.54847  0.56638  1.0000
  H   H1925     1.0  0.90715  0.48987  0.63432  1.0000
  H   H1926     1.0  0.89772  0.58868  0.79987  1.0000
  H   H1927     1.0  0.53572  0.68571  0.75412  1.0000
  C   C1085     1.0  0.53840  0.61888  0.74266  1.0000
  N   N56       1.0  0.94165  0.67766  0.96353  1.0000
  C   C1086     1.0  0.58397  0.57111  0.75444  1.0000
  C   C1087     1.0  0.60332  0.58923  0.69444  1.0000
  C   C1088     1.0  0.60787  0.61007  0.70864  1.0000
  C   C1089     1.0  0.58688  0.58304  0.79470  1.0000
  C   C1090     1.0  0.61053  0.62348  0.67138  1.0000
  H   H1928     1.0  0.57188  0.57321  0.73592  1.0000
  H   H1929     1.0  0.61450  0.58944  0.67127  1.0000
  H   H1930     1.0  0.58918  0.58497  0.67657  1.0000
  H   H1931     1.0  0.62163  0.61569  0.72751  1.0000
  H   H1932     1.0  0.59540  0.61084  0.72659  1.0000
  H   H1933     1.0  0.58268  0.55564  0.65018  1.0000
  H   H1934     1.0  0.59656  0.57912  0.81701  1.0000
  H   H1935     1.0  0.59363  0.59867  0.78865  1.0000
  H   H1936     1.0  0.62387  0.62444  0.65402  1.0000
  H   H1937     1.0  0.59747  0.61832  0.65029  1.0000
  H   H1938     1.0  0.61249  0.63810  0.68211  1.0000
  H   H1939     1.0  0.77758  0.65714  0.60068  1.0000
  N   N57       1.0  0.80210  0.62114  0.95879  1.0000
  C   C1091     1.0  0.81057  0.63014  0.91793  1.0000
  H   H1940     1.0  0.91087  0.52383  0.90666  1.0000
  C   C1092     1.0  0.80544  0.60245  0.96308  1.0000
  C   C1093     1.0  0.78019  0.61656  0.96104  1.0000
  C   C1094     1.0  0.77317  0.63351  0.95473  1.0000
  C   C1095     1.0  0.80235  0.61785  0.87873  1.0000
  H   H1941     1.0  0.65642  0.58257  0.78842  1.0000
  H   H1942     1.0  0.72667  0.66510  0.53467  1.0000
  C   C1096     1.0  0.75064  0.62645  0.95326  1.0000
  C   C1097     1.0  0.81036  0.62945  0.83939  1.0000
  H   H1943     1.0  0.79800  0.68114  0.64959  1.0000
  H   H1944     1.0  0.82682  0.63382  0.91855  1.0000
  H   H1945     1.0  0.80871  0.64402  0.91280  1.0000
  C   C1098     1.0  0.52264  0.67662  0.77192  1.0000
  C   C1099     1.0  0.65378  0.64407  0.97274  1.0000
  H   H1946     1.0  0.79692  0.59203  0.93908  1.0000
  H   H1947     1.0  0.77208  0.60509  0.93862  1.0000
  H   H1948     1.0  0.74463  0.61661  0.92673  1.0000
  H   H1949     1.0  0.77862  0.64135  0.92544  1.0000
  H   H1950     1.0  0.91190  0.61668  0.98829  1.0000
  H   H1951     1.0  0.80696  0.60530  0.87837  1.0000
  H   H1952     1.0  0.78602  0.61273  0.87703  1.0000
  C   C1100     1.0  0.53045  0.64663  0.76102  1.0000
  N   N58       1.0  0.75567  0.66346  0.53115  1.0000
  H   H1953     1.0  0.70036  0.70389  0.61456  1.0000
  H   H1954     1.0  0.58288  0.57656  0.55464  1.0000
  C   C1101     1.0  0.94410  0.63800  0.66203  1.0000
  H   H1955     1.0  0.74595  0.63890  0.94942  1.0000
  H   H1956     1.0  0.80552  0.64184  0.83670  1.0000
  H   H1957     1.0  0.82674  0.63479  0.83936  1.0000
  H   H1958     1.0  0.80476  0.62018  0.81185  1.0000
  H   H1959     1.0  0.56550  0.65480  0.78546  1.0000
  C   C1102     1.0  0.52432  0.60142  0.82770  1.0000
  H   H1960     1.0  0.58568  0.64303  0.86099  1.0000
  H   H1961     1.0  0.49860  0.59560  0.86694  1.0000
  N   N59       1.0  0.94973  0.62848  0.69901  1.0000
  H   H1962     1.0  0.50958  0.67109  0.75087  1.0000
  H   H1963     1.0  0.81857  0.53522  0.67931  1.0000
  H   H1964     1.0  0.64049  0.57041  0.71977  1.0000
  H   H1965     1.0  0.59213  0.51442  0.98672  1.0000
  C   C1103     1.0  0.84888  0.55910  0.93507  1.0000
  C   C1104     1.0  0.90000  0.55604  0.91680  1.0000
  C   C1105     1.0  0.56730  0.57894  0.81628  1.0000
  H   H1966     1.0  0.48853  0.51636  0.73725  1.0000
  H   H1967     1.0  0.95467  0.65566  0.72928  1.0000
  H   H1968     1.0  0.79883  0.56409  0.98269  1.0000
  C   C1106     1.0  0.62046  0.58046  0.75460  1.0000
  S   S256      1.0  0.93837  0.54514  0.97396  1.0000
  H   H1969     1.0  0.94493  0.69446  0.01924  1.0000
  N   N60       1.0  0.64720  0.64169  0.01727  1.0000
  H   H1970     1.0  0.88509  0.59142  0.95230  1.0000
  C   C1107     1.0  0.58103  0.54712  0.67912  1.0000
  H   H1971     1.0  0.53950  0.66636  0.81406  1.0000
  H   H1972     1.0  0.65564  0.64697  0.81295  1.0000
  H   H1973     1.0  0.92284  0.59571  0.94317  1.0000
  H   H1974     1.0  0.62264  0.59382  0.77183  1.0000
  H   H1975     1.0  0.57768  0.55583  0.76504  1.0000
  H   H1976     1.0  0.95774  0.70831  0.95796  1.0000
  H   H1977     1.0  0.75098  0.67238  0.59214  1.0000
  C   C1108     1.0  0.58940  0.64071  0.82889  1.0000
  H   H1978     1.0  0.59941  0.63259  0.83023  1.0000
  H   H1979     1.0  0.51967  0.68574  0.79573  1.0000
  H   H1980     1.0  0.54172  0.65631  0.73984  1.0000
  H   H1981     1.0  0.66998  0.64748  0.97151  1.0000
  H   H1982     1.0  0.59122  0.52598  0.65206  1.0000
  C   C1109     1.0  0.81867  0.56096  0.64674  1.0000
  H   H1983     1.0  0.55431  0.64474  0.83261  1.0000
  H   H1984     1.0  0.56555  0.64049  0.71677  1.0000
  Fe  Fe127     1.0  0.95419  0.52845  0.00764  1.0000
  C   C1110     1.0  0.91202  0.53297  0.87878  1.0000
  H   H1985     1.0  0.85215  0.56821  0.96311  1.0000
  H   H1986     1.0  0.83351  0.66071  0.96648  1.0000
  C   C1111     1.0  0.52152  0.61913  0.80770  1.0000
  C   C1112     1.0  0.55679  0.64086  0.80061  1.0000
  C   C1113     1.0  0.52657  0.66003  0.79314  1.0000
  C   C1114     1.0  0.81301  0.63407  0.99403  1.0000
  N   N61       1.0  0.88592  0.56653  0.91985  1.0000
  H   H1987     1.0  0.88195  0.53018  0.88160  1.0000
  C   C1115     1.0  0.59966  0.55594  0.70723  1.0000
  H   H1988     1.0  0.65170  0.65676  0.95804  1.0000
  H   H1989     1.0  0.57564  0.62702  0.77303  1.0000
  H   H1990     1.0  0.81750  0.54819  0.94732  1.0000
  C   C1116     1.0  0.86556  0.55150  0.92647  1.0000
  C   C1117     1.0  0.89648  0.54213  0.87967  1.0000
  H   H1991     1.0  0.52890  0.64457  0.56726  1.0000
  H   H1992     1.0  0.61889  0.56923  0.77865  1.0000
  H   H1993     1.0  0.64215  0.59436  0.70618  1.0000
  H   H1994     1.0  0.59966  0.54503  0.73100  1.0000
  H   H1995     1.0  0.54337  0.63750  0.68769  1.0000
  H   H1996     1.0  0.92712  0.54414  0.87735  1.0000
  C   C1118     1.0  0.82038  0.65613  0.98674  1.0000
  C   C1119     1.0  0.64009  0.58401  0.73202  1.0000
  C   C1120     1.0  0.59716  0.53828  0.56053  1.0000
  C   C1121     1.0  0.65778  0.59230  0.76150  1.0000
  C   C1122     1.0  0.57078  0.62956  0.80395  1.0000
  H   H1997     1.0  0.80274  0.55394  0.63897  1.0000
  H   H1998     1.0  0.84670  0.56755  0.90834  1.0000
  C   C1123     1.0  0.48616  0.50063  0.66388  1.0000
  C   C1124     1.0  0.83123  0.55909  0.61024  1.0000
  H   H1999     1.0  0.82503  0.53305  0.91436  1.0000
  C   C1125     1.0  0.88531  0.57746  0.88075  1.0000
  H   H2000     1.0  0.86050  0.54213  0.89894  1.0000
  H   H2001     1.0  0.93703  0.59942  0.76623  1.0000
  H   H2002     1.0  0.65770  0.64318  0.88852  1.0000
  C   C1126     1.0  0.58543  0.54888  0.55064  1.0000
  H   H2003     1.0  0.51669  0.64006  0.74208  1.0000
  C   C1127     1.0  0.57785  0.52655  0.66694  1.0000
  C   C1128     1.0  0.55534  0.61599  0.67631  1.0000
  H   H2004     1.0  0.51343  0.65213  0.81195  1.0000
  H   H2005     1.0  0.49745  0.51545  0.66383  1.0000
  H   H2006     1.0  0.66930  0.62752  0.90997  1.0000
  H   H2007     1.0  0.68056  0.67543  0.01047  1.0000
  C   C1129     1.0  0.90533  0.59199  0.86566  1.0000
  C   C1130     1.0  0.82926  0.54247  0.94194  1.0000
  H   H2008     1.0  0.87571  0.58589  0.88468  1.0000
  H   H2009     1.0  0.91650  0.58534  0.86255  1.0000
  H   H2010     1.0  0.89725  0.54983  0.84987  1.0000
  H   H2011     1.0  0.59250  0.52345  0.55103  1.0000
  H   H2012     1.0  0.52028  0.62781  0.83443  1.0000
  H   H2013     1.0  0.64278  0.66089  0.55842  1.0000
  H   H2014     1.0  0.90201  0.49146  0.58002  1.0000
  H   H2015     1.0  0.47349  0.52324  0.61259  1.0000
  H   H2016     1.0  0.92137  0.64618  0.69128  1.0000
  H   H2017     1.0  0.59093  0.61140  0.97455  1.0000
  H   H2018     1.0  0.77270  0.67899  0.65392  1.0000
  C   C1131     1.0  0.78078  0.67239  0.59287  1.0000
  H   H2019     1.0  0.90485  0.65016  0.62536  1.0000
  H   H2020     1.0  0.92034  0.68365  0.00109  1.0000
  C   C1132     1.0  0.95882  0.63020  0.54081  1.0000
  H   H2021     1.0  0.95463  0.65689  0.98124  1.0000
  H   H2022     1.0  0.90764  0.57436  0.73615  1.0000
  C   C1133     1.0  0.90422  0.58360  0.54076  1.0000
  H   H2023     1.0  0.92245  0.64407  0.59612  1.0000
  C   C1134     1.0  0.94776  0.69620  0.93899  1.0000
  H   H2024     1.0  0.47743  0.49834  0.81906  1.0000
  C   C1135     1.0  0.63775  0.69358  0.53700  1.0000
  C   C1136     1.0  0.59050  0.62277  0.99581  1.0000
  C   C1137     1.0  0.84429  0.62501  0.55305  1.0000
  H   H2025     1.0  0.80917  0.66074  0.97161  1.0000
  C   C1138     1.0  0.95848  0.69862  0.74360  1.0000
  C   C1139     1.0  0.59462  0.50515  0.01156  1.0000
  H   H2026     1.0  0.85640  0.60566  0.52711  1.0000
  H   H2027     1.0  0.72565  0.60300  0.54704  1.0000
  C   C1140     1.0  0.93435  0.68107  0.00500  1.0000
  Fe  Fe128     1.0  0.49113  0.52733  0.52920  1.0000
  H   H2028     1.0  0.94309  0.62632  0.54964  1.0000
  C   C1141     1.0  0.95918  0.67168  0.96809  1.0000
  H   H2029     1.0  0.62200  0.61491  0.00951  1.0000
  S   S257      1.0  0.88779  0.53010  0.02579  1.0000
  H   H2030     1.0  0.60226  0.69059  0.57354  1.0000
  H   H2031     1.0  0.70664  0.69843  0.56390  1.0000
  H   H2032     1.0  0.55660  0.50027  0.00207  1.0000
  C   C1142     1.0  0.79964  0.59167  0.00508  1.0000
  N   N62       1.0  0.46871  0.49976  0.68953  1.0000
  H   H2033     1.0  0.52086  0.48874  0.01188  1.0000
  S   S258      1.0  0.52021  0.54255  0.00506  1.0000
  H   H2034     1.0  0.82245  0.57931  0.00471  1.0000
  C   C1143     1.0  0.96117  0.64938  0.81147  1.0000
  H   H2035     1.0  0.94815  0.59834  0.59265  1.0000
  C   C1144     1.0  0.46986  0.50817  0.80929  1.0000
  H   H2036     1.0  0.66733  0.70128  0.01939  1.0000
  C   C1145     1.0  0.62560  0.62954  0.02196  1.0000
  H   H2037     1.0  0.70116  0.71983  0.57183  1.0000
  C   C1146     1.0  0.60694  0.70112  0.54766  1.0000
  S   S259      1.0  0.57689  0.54609  0.00407  1.0000
  H   H2038     1.0  0.96046  0.69525  0.58399  1.0000
  H   H2039     1.0  0.80390  0.63055  0.02247  1.0000
  H   H2040     1.0  0.60976  0.64938  0.02236  1.0000
  C   C1147     1.0  0.96202  0.61102  0.53468  1.0000
  H   H2041     1.0  0.58428  0.61615  0.02578  1.0000
  C   C1148     1.0  0.84013  0.54506  0.53049  1.0000
  H   H2042     1.0  0.78968  0.65313  0.53268  1.0000
  H   H2043     1.0  0.51039  0.64074  0.52713  1.0000
  C   C1149     1.0  0.96206  0.60087  0.57588  1.0000
  Fe  Fe129     1.0  0.59249  0.88155  0.43250  1.0000
  S   S260      1.0  0.60965  0.91171  0.45199  1.0000
  S   S261      1.0  0.55967  0.86604  0.43715  1.0000
  Fe  Fe130     1.0  0.62903  0.87324  0.41353  1.0000
  S   S262      1.0  0.64945  0.90352  0.43089  1.0000
  S   S263      1.0  0.64042  0.84967  0.39624  1.0000
  Fe  Fe131     1.0  0.62950  0.89958  0.48558  1.0000
  C   C1150     1.0  0.55264  0.89058  0.32602  1.0000
  Fe  Fe132     1.0  0.62798  0.91358  0.39551  1.0000
  S   S264      1.0  0.63017  0.94030  0.35717  1.0000
  S   S265      1.0  0.61084  0.86920  0.47031  1.0000
  S   S266      1.0  0.60928  0.88369  0.37399  1.0000
  H   H2044     1.0  0.65207  0.81855  0.37278  1.0000
  H   H2045     1.0  0.62316  0.79127  0.06158  1.0000
  S   S267      1.0  0.59205  0.75914  0.37561  1.0000
  H   H2046     1.0  0.69066  0.97657  0.44301  1.0000
  S   S268      1.0  0.55562  0.96563  0.13197  1.0000
  Fe  Fe133     1.0  0.60177  0.73609  0.34739  1.0000
  S   S269      1.0  0.51109  0.93774  0.10049  1.0000
  Fe  Fe134     1.0  0.52435  0.95907  0.15186  1.0000
  S   S270      1.0  0.51242  0.95020  0.21678  1.0000
  H   H2047     1.0  0.57550  0.88264  0.29760  1.0000
  C   C1151     1.0  0.52437  0.96161  0.33898  1.0000
  C   C1152     1.0  0.65309  0.97131  0.16924  1.0000
  C   C1153     1.0  0.75512  0.74349  0.16131  1.0000
  N   N63       1.0  0.63405  0.95530  0.18069  1.0000
  C   C1154     1.0  0.56826  0.93283  0.26162  1.0000
  H   H2048     1.0  0.60728  0.93657  0.15013  1.0000
  C   C1155     1.0  0.51523  0.95381  0.30111  1.0000
  C   C1156     1.0  0.52409  0.96131  0.26326  1.0000
  H   H2049     1.0  0.51769  0.95542  0.36792  1.0000
  H   H2050     1.0  0.50133  0.94169  0.30109  1.0000
  H   H2051     1.0  0.67956  0.86898  0.51809  1.0000
  C   C1157     1.0  0.63719  0.77682  0.49051  1.0000
  H   H2052     1.0  0.65484  0.80676  0.49168  1.0000
  Fe  Fe135     1.0  0.51318  0.97863  0.51654  1.0000
  H   H2053     1.0  0.65714  0.83323  0.52404  1.0000
  C   C1158     1.0  0.54673  0.87881  0.46020  1.0000
  C   C1159     1.0  0.52737  0.86901  0.47328  1.0000
  C   C1160     1.0  0.51674  0.87909  0.49119  1.0000
  C   C1161     1.0  0.52529  0.89906  0.49523  1.0000
  C   C1162     1.0  0.54462  0.90877  0.48227  1.0000
  C   C1163     1.0  0.55538  0.89868  0.46506  1.0000
  H   H2054     1.0  0.52059  0.85361  0.46956  1.0000
  H   H2055     1.0  0.50175  0.87147  0.50111  1.0000
  H   H2056     1.0  0.55119  0.92406  0.48503  1.0000
  H   H2057     1.0  0.57009  0.90638  0.45432  1.0000
  C   C1164     1.0  0.64931  0.95729  0.32777  1.0000
  C   C1165     1.0  0.66706  0.95495  0.31964  1.0000
  C   C1166     1.0  0.67847  0.96232  0.44074  1.0000
  H   H2058     1.0  0.63281  0.77651  0.45731  1.0000
  H   H2059     1.0  0.66967  0.94265  0.33217  1.0000
  H   H2060     1.0  0.58936  0.94732  0.33269  1.0000
  C   C1167     1.0  0.55963  0.93544  0.21956  1.0000
  C   C1168     1.0  0.62648  0.82466  0.38919  1.0000
  C   C1169     1.0  0.60611  0.81653  0.39570  1.0000
  C   C1170     1.0  0.59586  0.79652  0.39139  1.0000
  C   C1171     1.0  0.60569  0.78437  0.37972  1.0000
  C   C1172     1.0  0.62603  0.79252  0.37297  1.0000
  C   C1173     1.0  0.63634  0.81248  0.37795  1.0000
  H   H2061     1.0  0.59822  0.82564  0.40406  1.0000
  H   H2062     1.0  0.58013  0.79044  0.39662  1.0000
  H   H2063     1.0  0.63387  0.78345  0.36407  1.0000
  C   C1174     1.0  0.47201  0.95831  0.36960  1.0000
  H   H2064     1.0  0.50803  0.91989  0.40680  1.0000
  C   C1175     1.0  0.68573  0.98080  0.13105  1.0000
  C   C1176     1.0  0.66963  0.96473  0.15382  1.0000
  H   H2065     1.0  0.46619  0.94873  0.51334  1.0000
  H   H2066     1.0  0.76236  0.75678  0.17955  1.0000
  H   H2067     1.0  0.65185  0.77042  0.17245  1.0000
  H   H2068     1.0  0.50992  0.89656  0.41171  1.0000
  H   H2069     1.0  0.57687  0.73519  0.08087  1.0000
  C   C1177     1.0  0.62107  0.96367  0.20286  1.0000
  H   H2070     1.0  0.47204  0.95715  0.43793  1.0000
  H   H2071     1.0  0.65049  0.77297  0.49286  1.0000
  C   C1178     1.0  0.54222  0.97735  0.33932  1.0000
  S   S271      1.0  0.55534  0.96119  0.49036  1.0000
  H   H2072     1.0  0.66359  0.95509  0.52160  1.0000
  H   H2073     1.0  0.64174  0.74663  0.15108  1.0000
  H   H2074     1.0  0.61391  0.94922  0.03863  1.0000
  S   S272      1.0  0.53987  0.96990  0.03734  1.0000
  H   H2075     1.0  0.60973  0.91894  0.20981  1.0000
  H   H2076     1.0  0.64781  0.94874  0.45325  1.0000
  H   H2077     1.0  0.64471  0.74529  0.04969  1.0000
  C   C1179     1.0  0.57609  0.94490  0.35172  1.0000
  H   H2078     1.0  0.49146  0.90074  0.05599  1.0000
  Fe  Fe136     1.0  0.50958  0.96288  0.06379  1.0000
  H   H2079     1.0  0.76005  0.74644  0.12878  1.0000
  C   C1180     1.0  0.46287  0.94954  0.41142  1.0000
  H   H2080     1.0  0.47283  0.97437  0.21799  1.0000
  C   C1181     1.0  0.62151  0.92660  0.23257  1.0000
  H   H2081     1.0  0.63971  0.91890  0.27832  1.0000
  H   H2082     1.0  0.51999  0.89794  0.33905  1.0000
  H   H2083     1.0  0.57118  0.94337  0.41942  1.0000
  H   H2084     1.0  0.61672  0.92861  0.06307  1.0000
  H   H2085     1.0  0.63355  0.90390  0.23274  1.0000
  H   H2086     1.0  0.54121  0.88404  0.34969  1.0000
  H   H2087     1.0  0.61053  0.83125  0.47836  1.0000
  H   H2088     1.0  0.60720  0.95215  0.21277  1.0000
  C   C1182     1.0  0.59869  0.96599  0.40690  1.0000
  H   H2089     1.0  0.61521  0.90126  0.27144  1.0000
  H   H2090     1.0  0.62253  0.80552  0.46888  1.0000
  C   C1183     1.0  0.68140  0.96846  0.29472  1.0000
  H   H2091     1.0  0.57240  0.75304  0.04888  1.0000
  H   H2092     1.0  0.55258  0.86291  0.30708  1.0000
  H   H2093     1.0  0.68279  0.95137  0.45729  1.0000
  H   H2094     1.0  0.58114  0.91439  0.32417  1.0000
  H   H2095     1.0  0.48473  0.95393  0.36380  1.0000
  H   H2096     1.0  0.57285  0.92033  0.25932  1.0000
  H   H2097     1.0  0.58150  0.94592  0.26740  1.0000
  H   H2098     1.0  0.54236  0.93711  0.38007  1.0000
  H   H2099     1.0  0.49155  0.89976  0.37775  1.0000
  S   S273      1.0  0.51083  0.95885  0.46350  1.0000
  H   H2100     1.0  0.55649  0.80636  0.50679  1.0000
  H   H2101     1.0  0.60498  0.75330  0.11068  1.0000
  C   C1184     1.0  0.50688  0.90670  0.38986  1.0000
  H   H2102     1.0  0.47519  0.92707  0.41393  1.0000
  H   H2103     1.0  0.62836  0.93142  0.13849  1.0000
  C   C1185     1.0  0.62658  0.95596  0.51674  1.0000
  S   S274      1.0  0.51148  0.91161  0.51573  1.0000
  H   H2104     1.0  0.59040  0.93544  0.40344  1.0000
  H   H2105     1.0  0.57285  0.82626  0.47730  1.0000
  H   H2106     1.0  0.66362  0.95226  0.13280  1.0000
  C   C1186     1.0  0.50939  0.88393  0.04863  1.0000
  C   C1187     1.0  0.57671  0.74033  0.04860  1.0000
  H   H2107     1.0  0.57170  0.95750  0.34590  1.0000
  H   H2108     1.0  0.53951  0.91750  0.28594  1.0000
  H   H2109     1.0  0.64100  0.95895  0.09056  1.0000
  H   H2110     1.0  0.61067  0.79082  0.51141  1.0000
  H   H2111     1.0  0.51661  0.92010  0.33128  1.0000
  C   C1188     1.0  0.50100  0.89852  0.03182  1.0000
  H   H2112     1.0  0.58574  0.79987  0.48701  1.0000
  H   H2113     1.0  0.47321  0.95901  0.28460  1.0000
  Fe  Fe137     1.0  0.54205  0.97800  0.45052  1.0000
  H   H2114     1.0  0.62508  0.76594  0.50781  1.0000
  H   H2115     1.0  0.49737  0.86993  0.05504  1.0000
  H   H2116     1.0  0.54543  0.89159  0.29618  1.0000
  H   H2117     1.0  0.64990  0.77139  0.09600  1.0000
  C   C1189     1.0  0.60816  0.82635  0.51117  1.0000
  C   C1190     1.0  0.58743  0.81015  0.51263  1.0000
  C   C1191     1.0  0.62560  0.95425  0.10152  1.0000
  H   H2118     1.0  0.69709  0.97546  0.12008  1.0000
  H   H2119     1.0  0.54543  0.91589  0.39771  1.0000
  C   C1192     1.0  0.57114  0.81827  0.50708  1.0000
  H   H2120     1.0  0.62174  0.96715  0.10343  1.0000
  C   C1193     1.0  0.63917  0.94228  0.21111  1.0000
  H   H2121     1.0  0.61853  0.74039  0.09013  1.0000
  H   H2122     1.0  0.61189  0.96910  0.38734  1.0000
  N   N64       1.0  0.64569  0.97258  0.52498  1.0000
  H   H2123     1.0  0.55539  0.94822  0.21989  1.0000
  C   C1194     1.0  0.52139  0.91153  0.35412  1.0000
  C   C1195     1.0  0.54276  0.92315  0.36943  1.0000
  C   C1196     1.0  0.58339  0.94606  0.39738  1.0000
  C   C1197     1.0  0.62408  0.80332  0.50273  1.0000
  C   C1198     1.0  0.56318  0.87665  0.31965  1.0000
  C   C1199     1.0  0.65951  0.96307  0.45857  1.0000
  S   S275      1.0  0.55625  0.92538  0.05771  1.0000
  C   C1200     1.0  0.63898  0.76009  0.15558  1.0000
  H   H2124     1.0  0.57112  0.90804  0.37368  1.0000
  Fe  Fe138     1.0  0.52427  0.94375  0.50785  1.0000
  C   C1201     1.0  0.56705  0.91040  0.34132  1.0000
  H   H2125     1.0  0.54831  0.94227  0.29591  1.0000
  C   C1202     1.0  0.64184  0.79683  0.50848  1.0000
  H   H2126     1.0  0.62568  0.75691  0.17492  1.0000
  H   H2127     1.0  0.62359  0.95401  0.48296  1.0000
  C   C1203     1.0  0.62796  0.91179  0.25502  1.0000
  H   H2128     1.0  0.59128  0.97614  0.22316  1.0000
  H   H2129     1.0  0.57073  0.93755  0.19508  1.0000
  H   H2130     1.0  0.56893  0.87346  0.34960  1.0000
  H   H2131     1.0  0.64772  0.93471  0.19569  1.0000
  N   N65       1.0  0.55941  0.92656  0.33931  1.0000
  C   C1204     1.0  0.55286  0.92966  0.29615  1.0000
  H   H2132     1.0  0.61523  0.93321  0.25635  1.0000
  H   H2133     1.0  0.58673  0.80168  0.03847  1.0000
  C   C1205     1.0  0.61773  0.75493  0.09059  1.0000
  H   H2134     1.0  0.54638  0.92260  0.21163  1.0000
  H   H2135     1.0  0.51766  0.88936  0.07793  1.0000
  C   C1206     1.0  0.62336  0.94356  0.14379  1.0000
  C   C1207     1.0  0.63627  0.76866  0.11381  1.0000
  H   H2136     1.0  0.64907  0.95091  0.23609  1.0000
  H   H2137     1.0  0.64497  0.83902  0.48086  1.0000
  C   C1208     1.0  0.61246  0.94118  0.06822  1.0000
  H   H2138     1.0  0.65930  0.98081  0.19631  1.0000
  C   C1209     1.0  0.46276  0.97551  0.52489  1.0000
  H   H2139     1.0  0.67678  0.96037  0.18070  1.0000
  H   H2140     1.0  0.59679  0.93600  0.07755  1.0000
  Fe  Fe139     1.0  0.54215  0.94636  0.07756  1.0000
  H   H2141     1.0  0.66281  0.87378  0.48161  1.0000
  H   H2142     1.0  0.69501  0.96641  0.28841  1.0000
  C   C1210     1.0  0.66603  0.87239  0.51496  1.0000
  C   C1211     1.0  0.64425  0.83701  0.51511  1.0000
  H   H2143     1.0  0.63480  0.78260  0.11982  1.0000
  H   H2144     1.0  0.58718  0.93791  0.49126  1.0000
  H   H2145     1.0  0.60335  0.96667  0.43982  1.0000
  C   C1212     1.0  0.54206  0.97696  0.26357  1.0000
  H   H2146     1.0  0.59845  0.77762  0.07424  1.0000
  H   H2147     1.0  0.64409  0.77868  0.03021  1.0000
  H   H2148     1.0  0.59511  0.74648  0.46099  1.0000
  H   H2149     1.0  0.59230  0.97719  0.40140  1.0000
  H   H2150     1.0  0.65558  0.97395  0.44082  1.0000
  C   C1213     1.0  0.64622  0.97339  0.31093  1.0000
  H   H2151     1.0  0.70234  0.74041  0.27944  1.0000
  C   C1214     1.0  0.60982  0.77920  0.05049  1.0000
  H   H2152     1.0  0.58574  0.73296  0.50742  1.0000
  C   C1215     1.0  0.58986  0.93936  0.52515  1.0000
  H   H2153     1.0  0.67601  0.95831  0.40760  1.0000
  H   H2154     1.0  0.62865  0.97090  0.23165  1.0000
  H   H2155     1.0  0.46245  0.95975  0.08804  1.0000
  H   H2156     1.0  0.63258  0.97541  0.31701  1.0000
  C   C1216     1.0  0.47362  0.97397  0.28517  1.0000
  N   N66       1.0  0.61417  0.76109  0.04756  1.0000
  N   N67       1.0  0.47833  0.97982  0.36466  1.0000
  H   H2157     1.0  0.73888  0.73966  0.16236  1.0000
  C   C1217     1.0  0.66196  0.96772  0.50553  1.0000
  S   S276      1.0  0.61897  0.73848  0.28915  1.0000
  H   H2158     1.0  0.60464  0.96950  0.51978  1.0000
  H   H2159     1.0  0.67640  0.97981  0.50946  1.0000
  H   H2160     1.0  0.60329  0.97026  0.15414  1.0000
  C   C1218     1.0  0.61415  0.97797  0.17850  1.0000
  H   H2161     1.0  0.65056  0.98098  0.14555  1.0000
  C   C1219     1.0  0.59710  0.74500  0.02831  1.0000
  N   N68       1.0  0.62513  0.82100  0.52630  1.0000
  H   H2162     1.0  0.61231  0.81621  0.02800  1.0000
  H   H2163     1.0  0.64811  0.95988  0.58424  1.0000
  H   H2164     1.0  0.64379  0.91777  0.63807  1.0000
  C   C1220     1.0  0.72065  0.92137  0.70726  1.0000
  H   H2165     1.0  0.63946  0.81873  0.58417  1.0000
  S   S277      1.0  0.62630  0.75617  0.88055  1.0000
  H   H2166     1.0  0.65787  0.90229  0.71682  1.0000
  Fe  Fe140     1.0  0.59814  0.87118  0.77250  1.0000
  S   S278      1.0  0.62210  0.86446  0.80625  1.0000
  S   S279      1.0  0.59091  0.86394  0.70443  1.0000
  Fe  Fe141     1.0  0.58497  0.88585  0.85176  1.0000
  S   S280      1.0  0.60795  0.88003  0.89057  1.0000
  S   S281      1.0  0.56506  0.90154  0.87240  1.0000
  Fe  Fe142     1.0  0.62806  0.89288  0.83721  1.0000
  S   S282      1.0  0.65825  0.91565  0.84884  1.0000
  Fe  Fe143     1.0  0.59966  0.85194  0.85613  1.0000
  S   S283      1.0  0.59163  0.82309  0.89051  1.0000
  S   S284      1.0  0.60565  0.90034  0.80021  1.0000
  S   S285      1.0  0.57511  0.85704  0.82043  1.0000
  H   H2167     1.0  0.51323  0.91925  0.61039  1.0000
  H   H2168     1.0  0.68493  0.89675  0.67527  1.0000
  C   C1221     1.0  0.61571  0.82825  0.60026  1.0000
  C   C1222     1.0  0.56259  0.90777  0.92427  1.0000
  C   C1223     1.0  0.55210  0.91977  0.93208  1.0000
  C   C1224     1.0  0.55037  0.92559  0.97265  1.0000
  C   C1225     1.0  0.55873  0.91911  0.00597  1.0000
  C   C1226     1.0  0.56918  0.90708  0.99820  1.0000
  C   C1227     1.0  0.57119  0.90150  0.95758  1.0000
  H   H2169     1.0  0.54547  0.92476  0.90651  1.0000
  H   H2170     1.0  0.54255  0.93506  0.97826  1.0000
  C   C1228     1.0  0.49903  0.92241  0.95677  1.0000
  H   H2171     1.0  0.57924  0.89221  0.95209  1.0000
  C   C1229     1.0  0.61589  0.77425  0.88251  1.0000
  C   C1230     1.0  0.62611  0.79225  0.86410  1.0000
  C   C1231     1.0  0.61873  0.80720  0.86543  1.0000
  C   C1232     1.0  0.60108  0.80441  0.88568  1.0000
  C   C1233     1.0  0.59084  0.78639  0.90410  1.0000
  C   C1234     1.0  0.59812  0.77136  0.90239  1.0000
  H   H2172     1.0  0.63988  0.79468  0.84872  1.0000
  H   H2173     1.0  0.62683  0.82096  0.85130  1.0000
  H   H2174     1.0  0.57716  0.78404  0.91976  1.0000
  H   H2175     1.0  0.59002  0.75760  0.91653  1.0000
  H   H2176     1.0  0.58857  0.85556  0.61833  1.0000
  C   C1235     1.0  0.52413  0.92569  0.63565  1.0000
  H   H2177     1.0  0.51070  0.96410  0.89613  1.0000
  C   C1236     1.0  0.66427  0.93706  0.81985  1.0000
  H   H2178     1.0  0.53477  0.89332  0.67997  1.0000
  C   C1237     1.0  0.65456  0.93750  0.78243  1.0000
  H   H2179     1.0  0.59565  0.74782  0.99475  1.0000
  H   H2180     1.0  0.64290  0.92473  0.77133  1.0000
  C   C1238     1.0  0.62674  0.89682  0.59356  1.0000
  C   C1239     1.0  0.61105  0.87927  0.58827  1.0000
  C   C1240     1.0  0.60062  0.86917  0.62272  1.0000
  C   C1241     1.0  0.60553  0.87659  0.66276  1.0000
  C   C1242     1.0  0.62117  0.89417  0.66819  1.0000
  C   C1243     1.0  0.63183  0.90415  0.63371  1.0000
  H   H2181     1.0  0.62481  0.90018  0.69885  1.0000
  S   S286      1.0  0.48625  0.96165  0.01468  1.0000
  H   H2182     1.0  0.57366  0.88440  0.57112  1.0000
  H   H2183     1.0  0.62838  0.76776  0.98804  1.0000
  C   C1244     1.0  0.68187  0.95045  0.65062  1.0000
  C   C1245     1.0  0.54813  0.91105  0.60691  1.0000
  H   H2184     1.0  0.55013  0.88496  0.55544  1.0000
  N   N69       1.0  0.55856  0.90197  0.63638  1.0000
  C   C1246     1.0  0.55101  0.90148  0.67972  1.0000
  C   C1247     1.0  0.46961  0.89613  0.93127  1.0000
  H   H2185     1.0  0.53744  0.87292  0.62846  1.0000
  C   C1248     1.0  0.58067  0.91194  0.63424  1.0000
  C   C1249     1.0  0.58963  0.93285  0.65006  1.0000
  C   C1250     1.0  0.56034  0.89246  0.71352  1.0000
  H   H2186     1.0  0.55568  0.93795  0.64469  1.0000
  H   H2187     1.0  0.75387  0.91732  0.67400  1.0000
  H   H2188     1.0  0.61262  0.80990  0.65468  1.0000
  C   C1251     1.0  0.61210  0.93963  0.65414  1.0000
  C   C1252     1.0  0.55284  0.89442  0.75643  1.0000
  H   H2189     1.0  0.63543  0.83075  0.65325  1.0000
  H   H2190     1.0  0.61257  0.83345  0.66513  1.0000
  H   H2191     1.0  0.55301  0.91601  0.69071  1.0000
  H   H2192     1.0  0.59070  0.95773  0.96443  1.0000
  C   C1253     1.0  0.64963  0.97417  0.57103  1.0000
  C   C1254     1.0  0.64046  0.74903  0.01865  1.0000
  H   H2193     1.0  0.56167  0.87429  0.64211  1.0000
  H   H2194     1.0  0.58802  0.90339  0.65107  1.0000
  C   C1255     1.0  0.60369  0.95960  0.81073  1.0000
  H   H2195     1.0  0.58397  0.93439  0.68082  1.0000
  H   H2196     1.0  0.58630  0.94259  0.62758  1.0000
  H   H2197     1.0  0.55640  0.87690  0.70798  1.0000
  H   H2198     1.0  0.57665  0.89958  0.71460  1.0000
  H   H2199     1.0  0.74862  0.93552  0.64409  1.0000
  C   C1256     1.0  0.55014  0.85693  0.56665  1.0000
  C   C1257     1.0  0.55340  0.88136  0.62309  1.0000
  C   C1258     1.0  0.72251  0.91199  0.66572  1.0000
  H   H2200     1.0  0.60685  0.87347  0.55767  1.0000
  H   H2201     1.0  0.67056  0.76814  0.00479  1.0000
  H   H2202     1.0  0.61895  0.91242  0.95232  1.0000
  H   H2203     1.0  0.61863  0.93798  0.62434  1.0000
  H   H2204     1.0  0.61832  0.95500  0.66303  1.0000
  H   H2205     1.0  0.61629  0.93126  0.67858  1.0000
  C   C1259     1.0  0.54510  0.92960  0.62083  1.0000
  H   H2206     1.0  0.55744  0.90978  0.76505  1.0000
  H   H2207     1.0  0.53651  0.88748  0.75746  1.0000
  H   H2208     1.0  0.63628  0.86801  0.71772  1.0000
  H   H2209     1.0  0.71098  0.94853  0.78510  1.0000
  H   H2210     1.0  0.67966  0.95105  0.61666  1.0000
  C   C1260     1.0  0.60771  0.95746  0.53458  1.0000
  C   C1261     1.0  0.61935  0.82533  0.64607  1.0000
  H   H2211     1.0  0.50641  0.93114  0.98418  1.0000
  C   C1262     1.0  0.74377  0.91987  0.65055  1.0000
  H   H2212     1.0  0.51980  0.88185  0.02623  1.0000
  H   H2213     1.0  0.62205  0.84384  0.59392  1.0000
  H   H2214     1.0  0.60072  0.95927  0.74381  1.0000
  H   H2215     1.0  0.49820  0.88687  0.96989  1.0000
  C   C1263     1.0  0.55761  0.87828  0.57723  1.0000
  C   C1264     1.0  0.64836  0.98083  0.86029  1.0000
  H   H2216     1.0  0.54762  0.93939  0.59363  1.0000
  C   C1265     1.0  0.63079  0.97828  0.88920  1.0000
  C   C1266     1.0  0.71586  0.93627  0.78963  1.0000
  H   H2217     1.0  0.55662  0.84909  0.58801  1.0000
  H   H2218     1.0  0.72900  0.91593  0.73014  1.0000
  C   C1267     1.0  0.71768  0.93338  0.83618  1.0000
  H   H2219     1.0  0.72920  0.93712  0.70478  1.0000
  N   N70       1.0  0.70002  0.91767  0.72255  1.0000
  H   H2220     1.0  0.70366  0.94765  0.71806  1.0000
  H   H2221     1.0  0.55623  0.91476  0.57733  1.0000
  H   H2222     1.0  0.47273  0.93423  0.63725  1.0000
  H   H2223     1.0  0.73083  0.94036  0.77666  1.0000
  C   C1268     1.0  0.68620  0.97028  0.80833  1.0000
  C   C1269     1.0  0.48888  0.89127  0.99147  1.0000
  H   H2224     1.0  0.72739  0.94709  0.85050  1.0000
  H   H2225     1.0  0.61495  0.78969  0.98599  1.0000
  C   C1270     1.0  0.51376  0.95435  0.91899  1.0000
  C   C1271     1.0  0.65885  0.75516  0.99188  1.0000
  C   C1272     1.0  0.46581  0.94391  0.62354  1.0000
  H   H2226     1.0  0.70393  0.90528  0.78127  1.0000
  H   H2227     1.0  0.52286  0.93944  0.64461  1.0000
  H   H2228     1.0  0.49039  0.92976  0.89486  1.0000
  H   H2229     1.0  0.70300  0.92876  0.85094  1.0000
  C   C1273     1.0  0.57675  0.97710  0.94514  1.0000
  H   H2230     1.0  0.65727  0.86102  0.71408  1.0000
  H   H2231     1.0  0.64585  0.79648  0.54165  1.0000
  H   H2232     1.0  0.48343  0.94148  0.93631  1.0000
  H   H2233     1.0  0.59951  0.82350  0.59535  1.0000
  N   N71       1.0  0.61359  0.95920  0.88797  1.0000
  C   C1274     1.0  0.61070  0.94948  0.84639  1.0000
  C   C1275     1.0  0.61600  0.94571  0.92082  1.0000
  C   C1276     1.0  0.59491  0.96259  0.89745  1.0000
  H   H2234     1.0  0.47980  0.89764  0.90501  1.0000
  C   C1277     1.0  0.60323  0.78623  0.00950  1.0000
  H   H2235     1.0  0.66742  0.94717  0.66562  1.0000
  H   H2236     1.0  0.71301  0.91434  0.64089  1.0000
  C   C1278     1.0  0.63297  0.93833  0.91521  1.0000
  C   C1279     1.0  0.63333  0.92464  0.95037  1.0000
  H   H2237     1.0  0.72417  0.92233  0.84239  1.0000
  C   C1280     1.0  0.60639  0.95211  0.76842  1.0000
  C   C1281     1.0  0.64854  0.85681  0.53535  1.0000
  H   H2238     1.0  0.59951  0.93459  0.84870  1.0000
  H   H2239     1.0  0.62429  0.94749  0.83645  1.0000
  H   H2240     1.0  0.61857  0.95258  0.95177  1.0000
  H   H2241     1.0  0.60212  0.93283  0.92309  1.0000
  C   C1282     1.0  0.69307  0.93334  0.70807  1.0000
  C   C1283     1.0  0.66451  0.89160  0.72505  1.0000
  H   H2242     1.0  0.55438  0.85517  0.53455  1.0000
  H   H2243     1.0  0.70468  0.93934  0.64534  1.0000
  C   C1284     1.0  0.69025  0.93499  0.66087  1.0000
  C   C1285     1.0  0.67687  0.97047  0.77028  1.0000
  H   H2244     1.0  0.59813  0.93637  0.76649  1.0000
  H   H2245     1.0  0.59299  0.97338  0.87563  1.0000
  H   H2246     1.0  0.58568  0.91242  0.60195  1.0000
  H   H2247     1.0  0.66493  0.98157  0.64993  1.0000
  H   H2248     1.0  0.63108  0.93033  0.88590  1.0000
  H   H2249     1.0  0.64745  0.95036  0.91596  1.0000
  H   H2250     1.0  0.63661  0.93229  0.98040  1.0000
  H   H2251     1.0  0.53334  0.90043  0.59759  1.0000
  H   H2252     1.0  0.57159  0.82809  0.53286  1.0000
  H   H2253     1.0  0.52585  0.95022  0.90722  1.0000
  H   H2254     1.0  0.46394  0.92258  0.98146  1.0000
  C   C1286     1.0  0.65152  0.87242  0.70584  1.0000
  H   H2255     1.0  0.94754  0.73317  0.92378  1.0000
  H   H2256     1.0  0.51861  0.96229  0.94849  1.0000
  C   C1287     1.0  0.49508  0.93657  0.92552  1.0000
  H   H2257     1.0  0.65380  0.95412  0.72805  1.0000
  H   H2258     1.0  0.64500  0.91879  0.94454  1.0000
  C   C1288     1.0  0.68600  0.89799  0.70941  1.0000
  C   C1289     1.0  0.66089  0.95413  0.75770  1.0000
  H   H2259     1.0  0.68620  0.91636  0.78202  1.0000
  H   H2260     1.0  0.66397  0.88953  0.75912  1.0000
  H   H2261     1.0  0.65312  0.96850  0.86195  1.0000
  C   C1290     1.0  0.46925  0.91231  0.99806  1.0000
  H   H2262     1.0  0.69219  0.96475  0.66122  1.0000
  H   H2263     1.0  0.61541  0.80126  0.57827  1.0000
  C   C1291     1.0  0.67991  0.95359  0.83303  1.0000
  H   H2264     1.0  0.68750  0.95337  0.86196  1.0000
  H   H2265     1.0  0.67906  0.93183  0.72322  1.0000
  H   H2266     1.0  0.55919  0.88724  0.77971  1.0000
  H   H2267     1.0  0.74477  0.91254  0.62150  1.0000
  S   S287      1.0  0.52421  0.96195  0.56218  1.0000
  C   C1292     1.0  0.59893  0.80444  0.01625  1.0000
  H   H2268     1.0  0.51020  0.91763  0.94240  1.0000
  H   H2269     1.0  0.69188  0.88693  0.72018  1.0000
  H   H2270     1.0  0.56248  0.96572  0.93619  1.0000
  C   C1293     1.0  0.63198  0.76515  0.02064  1.0000
  H   H2271     1.0  0.52045  0.91595  0.66284  1.0000
  H   H2272     1.0  0.58176  0.94918  0.89242  1.0000
  C   C1294     1.0  0.70077  0.91788  0.76929  1.0000
  H   H2273     1.0  0.67993  0.92131  0.64765  1.0000
  C   C1295     1.0  0.59360  0.96972  0.94181  1.0000
  H   H2274     1.0  0.58961  0.77526  0.99649  1.0000
  H   H2275     1.0  0.65078  0.87373  0.67164  1.0000
  H   H2276     1.0  0.71814  0.89623  0.67007  1.0000
  H   H2277     1.0  0.65519  0.75823  0.95969  1.0000
  H   H2278     1.0  0.61178  0.97538  0.81126  1.0000
  H   H2279     1.0  0.60750  0.98150  0.95096  1.0000
  H   H2280     1.0  0.62225  0.95533  0.76279  1.0000
  C   C1296     1.0  0.62440  0.81667  0.57219  1.0000
  H   H2281     1.0  0.60877  0.95934  0.56856  1.0000
  H   H2282     1.0  0.46699  0.86601  0.93228  1.0000
  N   N72       1.0  0.48127  0.90518  0.96981  1.0000
  H   H2283     1.0  0.57568  0.90195  0.02379  1.0000
  H   H2284     1.0  0.59441  0.80919  0.98637  1.0000
  H   H2285     1.0  0.63842  0.97808  0.58732  1.0000
  H   H2286     1.0  0.65242  0.85620  0.56855  1.0000
  H   H2287     1.0  0.59209  0.92636  0.53706  1.0000
  H   H2288     1.0  0.58771  0.95676  0.81398  1.0000
  H   H2289     1.0  0.66462  0.74338  0.99100  1.0000
  H   H2290     1.0  0.47769  0.95785  0.61576  1.0000
  H   H2291     1.0  0.47668  0.87779  0.00016  1.0000
  H   H2292     1.0  0.47866  0.92078  0.02385  1.0000
  Fe  Fe144     1.0  0.55517  0.98037  0.54314  1.0000
  H   H2293     1.0  0.51367  0.91213  0.02682  1.0000
  H   H2294     1.0  0.58516  0.80208  0.54228  1.0000
  H   H2295     1.0  0.62948  0.73592  0.00468  1.0000
  H   H2296     1.0  0.57570  0.98126  0.97761  1.0000
  S   S288      1.0  0.64018  0.90993  0.55080  1.0000
  H   H2297     1.0  0.57671  0.94049  0.53980  1.0000
  H   H2298     1.0  0.53379  0.85053  0.56848  1.0000
  H   H2299     1.0  0.63678  0.98146  0.92136  1.0000
  H   H2300     1.0  0.60743  0.83873  0.52841  1.0000
  H   H2301     1.0  0.62773  0.94235  0.52845  1.0000
  H   H2302     1.0  0.63590  0.86153  0.53280  1.0000
  H   H2303     1.0  0.66876  0.88642  0.52999  1.0000
  H   H2304     1.0  0.68140  0.98163  0.58088  1.0000
