data_image0
_chemical_formula_structural       FeS2FeS2FeSFeS3CH4CFeS2FeS2FeSFeCS2C2HCHC6H3CH2CHC3H3CHCH2C4HCH4C6H4CH2CH7CH3CH2CH3CHCHC2H4C2H3NH2C5HCHC2NH2CHCH2SH6CH5CH2C2H3CHCH2CHSHNHCHNC2H3CHC2H2CH15CH2CHCHC2H4NH2C3H3CHCH4CHCHC2HC2H10CH6C2H3CH3C2H4SH4C3H6C3H2CH3C2SHSH5CH4SCHC3H4FeS2FeS2FeSFeS3CH2C2HFeS2FeS2FeSFeHS2HCHCHC6H4CHCHC2H2C3HCH2C3H2CH3C7H4C2H4NCHNHCH2CH6C2H11C3H4CN2C9HC2H11CH8SNHCH6CH4CHC2H5NCH2CH9CHC2HCHC2HSHCHCHSC2H5CHCH5C3H2C2HNC5HCH11C2H12C2H2CH2C3H11C2HC2HCH2CH4C2SCH4CH5CFeS2FeSHFeSFeS3FeS2FeS2FeSFeCS2FeS2FeS2FeSFeS3H3C6H2CHC5H5C6H4C6H4C6H5CH2CH2SC2HSH3C3H3CHCHC2H3C4H11CHCH2NH2CHCHNC11H26NH4C2H2CHCH3NCH3CH11C4HCHCHCHCHCH3CHC2H2C2H6C4HC3HC2H3CHCH2C2H8CHNHCH2CH2SHNHCH2CHCHCH2CH7CH4CSH2C2HCH3NCHC2H8CH3CHC2H7CHCNH2C3HCH6CH6C2H7C2HC2HSCH2CHFeS2FeSCFeSFeS3FeS2FeS2FeSFeS3FeS2FeS2FeSFeS3CH2C6H4C6H4C6H4FeC4H4C7H4CHC2HCHC3H2CHC4H4C2HCH4CNC11H28C2H2C2H7C2H2SC3HCH2CH3CSH6CHNCH3CHCH29NC12H28NC4H6CH2CHCNHCH2CH4C3H3CHCH4C2H9CH3C2H3C2H4CH2CSH6CH5CNHC2H2C2HCH5C2SCHCHCH2C3H5CH2C2HSFeS2FeS2FeSFeS3FeSCFeS2FeSFeS3FeS2HSHFeHFeSCSH2CSC6H4C2SC3HFeHC2HC3H2C3HFeH2C2HC5H4C6H4C2HSC2HCH3C2H2NC9H2CHCH15CH4SCH7C3H6CH3C2H2CNHCFeH5CH4CH3CHCH4CH4NH3C3H4CHC2H6C4HCH8NCH6CH2NC8HC2H9CH5CH9NC12H19CH8NC8HC3H16CH3SC2HSCH3CH3C2H6CH3C2H7CH2SHCH2NH8C2H3CHCFeS2FeS2FeSFeS3FeSCFeS2FeSFeS3FeSC2S2H2FeSHSC2H2C6H4C7H2C2HC3H2C2H3CH4C6H3C6H4C3H2CH4C2H4C2HNC10H19CH4NC3SHCHCH2CH4CH3CH5C2HS2H7C2H3CH2C2H5CH2CSHCHNC12H18CH9NC11H14CH11CH5CH3SFeHCHSCNCH2CH3CSHSHCH3CH3FeC3H2C2NH2CHC3H19CHC2H2C2FeS2CHFeS2CSHSH2FeS2HCSHS2H3Fe2SHSH2CSFeS2FeS2FeSFeS3C4H2C6H4C6H4C3FeH2CH6C6H6CHC2HC3H3CHC3HC2H2C2NC10NH22CH4CH3NCH2CH3SCFeH2NC9H24CHC3H12CNC12H29CH3C2H6C2HCH5NC10HCH10CH3CH8C2H6CHC2FeH4FeHCHCHCFeC2H3C2H4CH2CHFeSHCHFeHSCSH2CSFeH3CH2CSH5C6H2NH2CH2CH6CSH3C2SC2H3CH2CSHCFeS2CFeS3HSHSFeCFeS2H2S2H3SHFeS2FeSFeSHSFeS2FeS2FeSFeS3C3H3C6H4C6H4C6H2NH4C6H8SC4HCHC2HC3H2CH9CH3SHC2H4CHCHCH2CH2NC12H29CHCHCH5CH2N2FeH2CH5SC4SHC2HFeSFeHC4HC2HCH4FeH4CH2NHC2HCH4CH3CH5CH5CH2CHNC8HC3H28NC2HC2HC3H4C2H4FeH10SH6CH3CHCFeCHC2H4C3H4CHSC2H4C2H5CHCFeHCFeHCH5C2HCH2C2NHC3HCHCH8CH2CHC2FeS2FeSNHFeC2H3CSFeS2FeS2FeSFeHS2CH2CSC7H4C6HCH2C4HCH2CHC6H4CH4NC6HC4H7CH4CH15SH2FeH4CH4SH2FeH3C2HFeH7SHCHCHCSHCH2CSH4CHCH4C2HCHCH2CSHFeC2H4SHCH7SHCHFeH2CH2NCHCH2C2H3C2H12CHCHCH4CH3SHC3H2NSHCH3CH5SHSCHFeHFeHCH3FeS2FeS2FeSFeCS2HSH2SC7H4C6H4C4H6C6H4C3HSCH3CHC2HCH3C2HCH6CHNHCHSHCHCH2C2H2CHCH2CHCH4CHCH2C2HCH3C2H4C2H2FeHCH3C2HSHCHC2H6CSFeH5NC9SC2H28SHCH6C2HCH2CHNHC2H6NHC2H5CH4CH2C2H2CH4CH2FeCHSHSHFeSHFeS2FeS2FeSFeS3HSC4H2CHC2HC6HCH2C6H5C4H3CH2CH3CH4CHFeCH2CH4CH4CH2CHCH8CH2C3H2CH3CHCHCH2C2H3CNH4C2H7C3HNH2CSH5CHCH4CHCHNH3SCHCH3CH4CH2C2HCH6CH9CH2SH4SCSHFeS2FeS2FeS2FeSFeS4H2C3HC2HFeH2C6H4C6H5C2HCH2CH5C2HCHCH3CH4CH4CH5CHCNHCH5NCH2CHCH4CH4CH2CH5CHC2HC3HCH2CH9CSHCH7FeHC2H2FeHCH3CH2CH3C3H2CHCSC2HC2FeCSH2FeS2FeS2FeSFeS3HSHFeS2HC2HNC6H4C6H4C6H8C2NC7HC2HCH9CH9C3HCH5CH2CH4CHCHCHC3H6CHCH2CHC2H2CSH2CHCH8SCH15C2H2CHCH6CH2C2H2NCNC4H2FeH2CHCHSH10FeCS2HFeS2FeS2FeSFeS3H2CFeS2C2H2C7H4C6H4C6H4NC10H25CHCNH4CH2CHCH2FeH2C3H3CH2CH3CH4C2H3C2H5CNH3CHSCH3C2HC2H2SCH2CHCH4C2H8C2HCH6CSH8CNCHC2H17CHCSHFeS2FeS2FeH2FeS2FeHFeS3H5FeS2FeS2CSCSHCH9C6H4C6H4C6H4C3SHCHSHCHFeCH2CH2CHC4HCH5CSH2CH6CH5NHCH4CH3C4H2NCH2C2H3CH2CNHCH2CH7CH3CHCH2C2H5CH3CH3CHCH5CHC2HCHCH2C4HCHSHC3H2CH2NH2C2H5CHNH9CHCSH6CH2FeHC2H3CHC2FeS2FeS2FeH2FeS2CHFeS3H2C2HFeS2FeS2C3H2FeHC2H6C6H4C6H4C6H5C2H4SH5C2H2CH5C3HCH5CH2CH2CNH5CHCHCH6CH4CH2CH2C2HNC2HC2HCHC2HCH3C2H2CH11CH3NCHC3HSH3C2H6CHC2HCH3C2HC2H3CH3NCHC2H3NHNC9H18SH4CHCH2C2H4SCHC2SCH7CH3CH3C2HCH2CH2CFeH4C2NH6CFeHSHFeHSHS4HFeSC2H2FeHSFeSHS2HFeS2CFeSCSHFeS2FeS2FeSFeS3H2CH2C6H4C6H4C6HFeH2FeC3HC6H9C4SCHC5HCHCH2SCH2CH3NCH2NC7H2C3H3FeH9SH3CH10NC2H3C4H3SH4CHC3H5CH5CH3C2H6FeH4FeH4NC12H28NCHSCH14CHCSHCFeHCH2NC2SHC2H7SH2CHC4H5C4FeCHCHCH2CH3SH7FeH2CH2C3HC2H2CH6C2HCH2CSCH7CH2C2HC2HC2H3NH4C2HC3HSHC3HCH8SH2Fe2SCSH2SHFeSC2H2FeCSHCHS2HFeS2HFeSHSHFeS2FeS2FeSFeS3H5C6H4C6H4C5H5NHCH2C6H4CH6C3H2C2FeH3NC10NH3CH10CH9NC6HC2SCNH9CH2C2H4CH5CH3CHC2SCH4C2H3CH2CHCH2NC3H2C3HC3H8NH6CSCH4CSH3FeHCH4CHCH2CHC2SHCH2CH2CH3FeHNCFeC2NHCH6C3H11CFeCH2CH5C2H4CH4CH5C2H2SH2C2H5CH4CH2C2HC2H6C2HNHCH2CHCFeH5C2SC2SHC2H4CH3CHC2FeHSH3CH3SH8CHCH3CH3SH2CHC2H4CH3CH2C2H2C2H6C2FeS2FeS2FeSFeS3FeS2FeS2FeSFeS3CS2FeSFeSFeS2H3FeSHS2HC2H2SC6H4C6H4C4HCH5CH2C6H7C2H5C6H5CSH7CH2CHC3HCH2C2H7C2HCH6C2H6CH6CNC4HC5HCH9CH5C2HCH7CH3NC12H28CH2FeH3C2HCH5CHC3HNCH3CH3C2H2SHCHC2H3CHC2HCH4CHC2HCH2CHC2H5CNH8CH7CHC2HCHCH3NC4HNC2HCH3CH2CHCH4C2HCH4CHCNH2CH3FeHCHSH5CH4FeHFeS2FeS2FeSFeS3FeS2FeS2FeSFeS3HS2CH2SFeS2H2CFeSHS2C2HCH2C6H4C6H4C2SC3HCH2CH3C6H5CHCHC2H3C6H2CHC2HCHCHCH2NHC2SC2H2C2Fe2H3FeNC3HC2HC2H17NC12H29FeH3FeH4CH2C4HSH3C2H2SHCH6CHC2H3CHCHCH6NCHCH8CH2CHC2HCHCH3CH3CHCH3CH6NC11H14CH4SCH2CHCHCHCNH5CH3CH2CH6C2H2CH3CHNHCH4CHSCH4FeS2FeS2FeSFeS3FeS2FeS2FeSFeS3FeS2H3FeSFeS3FeC2H3C7H4C6HCH2CH3C6H4C6H4C6H5C4HC3H3SCH6CHCHCHCHCHC2HCH13C2H2CHCH4CH3SCHNCH2CH2CH3SHCHNCHC5H2CHCH15C2H10CH4CH4CH4CH4C2H4C2H4NH3Fe2H2SH4CFeC3HCNC12H28NC7HSH4CSHC2H2CHCH3C3H3C3SH3CH8CHNH3C2HFeSHCFeSCFeS2FeS2FeSFeS3FeS2FeS2FeSFeS3FeS2FeH2FeSFeS3H3C2H2C6H4C6H7C7H4C6H4C6H4C3HCH2C2H3SH9NC5H7CH3CH4C2H7CH3C2H2CNC8H17C2H3CSCHCH2CH2C2NHCHSH2CH6CH3CNC11H22CHC3H5CHCH2CH2CSNHCHCH5CH3CH2CH5CH2CH6CHC4H3C2H11CHC3H4NH3CHNHC2HC2HCHCSHCH3CHCH6CHCH2CHCHFeH3CH5C2H2SH2FeS2FeS2FeSFeS3FeS2FeS2FeSFeS3HCHCH2C6H4C2HC5H5C6H4CFeH2C2NH3C2H2C3HSC3HCHCH3C3HCH3C2H3C2H7C2HC2H5NHNHCHC2SHC4H3CHCH4CNCSC4H3CH6CH5CH10CHCH7NH3C2H5NC11H30C3HNH2C2H8C2HCHCH4C2H8CH6CH5CHCHC4HC2H2FeH3C2H2CH2CHC2H5SH4CFeS2FeS2FeSFeS3FeS2FeS2FeSFeHS2H3CNSC6H7C2H2CH5C6H4C2HCHNHCFeH2CH5C2SC5H2NC2HC3SC2H3CH5CH5CH3FeCHC3HCH2CH8SCHSH3C2H7CH3NH2CNC3SHC2H2C3H2CH5CH7CHCH11CHC3HSC2H9CH4C2HCHCHFeC2H2CH2C2HCH2CH4CHCHCHCH5C3H5CH2C2H4CH3C2HCH
_chemical_formula_sum              "Fe288 S576 C2592 H4608 N144"
_cell_length_a       91.3063
_cell_length_b       87.4594
_cell_length_c       41.2851
_cell_angle_alpha    91.2506
_cell_angle_beta     88.7057
_cell_angle_gamma    112.589

_space_group_name_H-M_alt    "P 1"
_space_group_IT_number       1

loop_
  _space_group_symop_operation_xyz
  'x, y, z'

loop_
  _atom_site_type_symbol
  _atom_site_label
  _atom_site_symmetry_multiplicity
  _atom_site_fract_x
  _atom_site_fract_y
  _atom_site_fract_z
  _atom_site_occupancy
  Fe  Fe1       1.0  0.05499  0.21706  0.31901  1.0000
  S   S1        1.0  0.03432  0.22142  0.29848  1.0000
  S   S2        1.0  0.07246  0.20821  0.29267  1.0000
  Fe  Fe2       1.0  0.04964  0.22814  0.38743  1.0000
  S   S3        1.0  0.02883  0.23389  0.37207  1.0000
  S   S4        1.0  0.05656  0.23166  0.44047  1.0000
  Fe  Fe3       1.0  0.02070  0.20975  0.34417  1.0000
  S   S5        1.0  0.99602  0.18839  0.34836  1.0000
  Fe  Fe4       1.0  0.04390  0.24508  0.32809  1.0000
  S   S6        1.0  0.04601  0.27007  0.30977  1.0000
  S   S7        1.0  0.04088  0.20339  0.36221  1.0000
  S   S8        1.0  0.06524  0.24133  0.34593  1.0000
  C   C1        1.0  0.17077  0.29995  0.19107  1.0000
  H   H1        1.0  0.17466  0.13400  0.46918  1.0000
  H   H2        1.0  0.05548  0.28321  0.21992  1.0000
  H   H3        1.0  0.06775  0.24010  0.11018  1.0000
  H   H4        1.0  0.07531  0.26443  0.20995  1.0000
  C   C2        1.0  0.10052  0.28418  0.36551  1.0000
  Fe  Fe5       1.0  0.15020  0.25672  0.08858  1.0000
  S   S9        1.0  0.15280  0.23605  0.05843  1.0000
  S   S10       1.0  0.16446  0.28459  0.09015  1.0000
  Fe  Fe6       1.0  0.11981  0.23360  0.12293  1.0000
  S   S11       1.0  0.11991  0.21122  0.09509  1.0000
  S   S12       1.0  0.10023  0.23679  0.15410  1.0000
  Fe  Fe7       1.0  0.14636  0.22117  0.10446  1.0000
  S   S13       1.0  0.15612  0.20272  0.12521  1.0000
  Fe  Fe8       1.0  0.12630  0.22754  0.05132  1.0000
  C   C3        1.0  0.09145  0.28896  0.27551  1.0000
  S   S14       1.0  0.14561  0.24261  0.13527  1.0000
  S   S15       1.0  0.12436  0.24912  0.07827  1.0000
  C   C4        1.0  0.17516  0.29618  0.05680  1.0000
  C   C5        1.0  0.17977  0.28871  0.03039  1.0000
  H   H5        1.0  0.01372  0.17698  0.43327  1.0000
  C   C6        1.0  0.13372  0.26052  0.34132  1.0000
  H   H6        1.0  0.96786  0.19218  0.42047  1.0000
  C   C7        1.0  0.20153  0.19101  0.11771  1.0000
  C   C8        1.0  0.18907  0.18241  0.13897  1.0000
  C   C9        1.0  0.17542  0.18632  0.14109  1.0000
  C   C10       1.0  0.17389  0.19872  0.12178  1.0000
  C   C11       1.0  0.18630  0.20721  0.10029  1.0000
  C   C12       1.0  0.20002  0.20339  0.09837  1.0000
  H   H7        1.0  0.19003  0.17292  0.15414  1.0000
  H   H8        1.0  0.16595  0.17970  0.15789  1.0000
  H   H9        1.0  0.18535  0.21674  0.08524  1.0000
  C   C13       1.0  0.09366  0.23428  0.00266  1.0000
  H   H10       1.0  0.09713  0.25940  0.37725  1.0000
  H   H11       1.0  0.98817  0.25347  0.39068  1.0000
  C   C14       1.0  0.06854  0.29178  0.15893  1.0000
  H   H12       1.0  0.16703  0.99197  0.29428  1.0000
  C   C15       1.0  0.06677  0.29987  0.28621  1.0000
  C   C16       1.0  0.20024  0.99147  0.38128  1.0000
  C   C17       1.0  0.08282  0.16306  0.49869  1.0000
  H   H13       1.0  0.14108  0.27789  0.03913  1.0000
  H   H14       1.0  0.18422  0.00261  0.39866  1.0000
  H   H15       1.0  0.04591  0.25690  0.14901  1.0000
  C   C18       1.0  0.06447  0.28351  0.29378  1.0000
  H   H16       1.0  0.02907  0.26523  0.24916  1.0000
  C   C19       1.0  0.07681  0.27805  0.28799  1.0000
  H   H17       1.0  0.98070  0.22282  0.48565  1.0000
  H   H18       1.0  0.07502  0.26536  0.29284  1.0000
  C   C20       1.0  0.07576  0.23418  0.45305  1.0000
  C   C21       1.0  0.08698  0.23242  0.43126  1.0000
  C   C22       1.0  0.10182  0.23349  0.44245  1.0000
  C   C23       1.0  0.06515  0.17891  0.45628  1.0000
  H   H19       1.0  0.17452  0.28354  0.15433  1.0000
  C   C24       1.0  0.13602  0.27768  0.44846  1.0000
  H   H20       1.0  0.08399  0.22981  0.40601  1.0000
  H   H21       1.0  0.11039  0.23188  0.42568  1.0000
  H   H22       1.0  0.09730  0.23807  0.02728  1.0000
  H   H23       1.0  0.08489  0.20109  0.47187  1.0000
  C   C25       1.0  0.09260  0.22811  0.19222  1.0000
  C   C26       1.0  0.08013  0.23169  0.20634  1.0000
  C   C27       1.0  0.07399  0.22583  0.23717  1.0000
  C   C28       1.0  0.08003  0.21590  0.25394  1.0000
  C   C29       1.0  0.09243  0.21212  0.23980  1.0000
  C   C30       1.0  0.09876  0.21826  0.20907  1.0000
  H   H24       1.0  0.07507  0.23888  0.19311  1.0000
  H   H25       1.0  0.06440  0.22874  0.24770  1.0000
  H   H26       1.0  0.09713  0.20438  0.25261  1.0000
  H   H27       1.0  0.10832  0.21534  0.19838  1.0000
  C   C31       1.0  0.97576  0.18591  0.35426  1.0000
  H   H28       1.0  0.19624  0.12691  0.44217  1.0000
  H   H29       1.0  0.08396  0.30969  0.19471  1.0000
  C   C32       1.0  0.96414  0.17405  0.26260  1.0000
  H   H30       1.0  0.97927  0.21134  0.34676  1.0000
  H   H31       1.0  0.15032  0.30860  0.23846  1.0000
  H   H32       1.0  0.15999  0.15606  0.03801  1.0000
  H   H33       1.0  0.18650  0.03623  0.30463  1.0000
  H   H34       1.0  0.19162  0.04355  0.25388  1.0000
  H   H35       1.0  0.05242  0.25672  0.23813  1.0000
  H   H36       1.0  0.14694  0.17152  0.07172  1.0000
  C   C33       1.0  0.12629  0.26452  0.26854  1.0000
  H   H37       1.0  0.08621  0.16041  0.47372  1.0000
  H   H38       1.0  0.21133  0.14308  0.05299  1.0000
  H   H39       1.0  0.09024  0.18618  0.45105  1.0000
  C   C34       1.0  0.10640  0.26999  0.36496  1.0000
  H   H40       1.0  0.14663  0.29653  0.18271  1.0000
  H   H41       1.0  0.11352  0.21877  0.31607  1.0000
  C   C35       1.0  0.12685  0.29162  0.05168  1.0000
  H   H42       1.0  0.13269  0.25800  0.36781  1.0000
  H   H43       1.0  0.11629  0.28066  0.05928  1.0000
  H   H44       1.0  0.10088  0.28462  0.27094  1.0000
  C   C36       1.0  0.16137  0.26077  0.34884  1.0000
  H   H45       1.0  0.12426  0.24049  0.28588  1.0000
  C   C37       1.0  0.16986  0.28290  0.17951  1.0000
  H   H46       1.0  0.17317  0.17091  0.06576  1.0000
  C   C38       1.0  0.10945  0.26522  0.32969  1.0000
  C   C39       1.0  0.09381  0.30534  0.26813  1.0000
  H   H47       1.0  0.09722  0.28622  0.15698  1.0000
  H   H48       1.0  0.01315  0.22067  0.49723  1.0000
  H   H49       1.0  0.12950  0.26805  0.43032  1.0000
  H   H50       1.0  0.15746  0.27367  0.18041  1.0000
  C   C40       1.0  0.07963  0.23735  0.48593  1.0000
  C   C41       1.0  0.04440  0.25686  0.21840  1.0000
  H   H51       1.0  0.09482  0.23305  0.33398  1.0000
  H   H52       1.0  0.10602  0.24252  0.28108  1.0000
  H   H53       1.0  0.18752  0.29728  0.49552  1.0000
  N   N1        1.0  0.11753  0.25304  0.32610  1.0000
  H   H54       1.0  0.14731  0.29776  0.02025  1.0000
  H   H55       1.0  0.99539  0.23916  0.37070  1.0000
  C   C42       1.0  0.16302  0.15877  0.06389  1.0000
  C   C43       1.0  0.10053  0.20755  0.35884  1.0000
  C   C44       1.0  0.09445  0.23840  0.49710  1.0000
  C   C45       1.0  0.96434  0.17007  0.36141  1.0000
  C   C46       1.0  0.99448  0.24504  0.39438  1.0000
  H   H56       1.0  0.11767  0.27027  0.26359  1.0000
  C   C47       1.0  0.13171  0.25978  0.23594  1.0000
  H   H57       1.0  0.15064  0.16235  0.10758  1.0000
  C   C48       1.0  0.11246  0.22263  0.34148  1.0000
  C   C49       1.0  0.09317  0.27582  0.17402  1.0000
  N   N2        1.0  0.06473  0.27560  0.17620  1.0000
  H   H58       1.0  0.14096  0.25463  0.23927  1.0000
  H   H59       1.0  0.96806  0.16680  0.24445  1.0000
  C   C50       1.0  0.14692  0.25515  0.32691  1.0000
  H   H60       1.0  0.03271  0.19386  0.43733  1.0000
  C   C51       1.0  0.20513  0.01978  0.30182  1.0000
  H   H61       1.0  0.02012  0.21332  0.45073  1.0000
  H   H62       1.0  0.06695  0.25037  0.07334  1.0000
  S   S16       1.0  0.21185  0.07011  0.30672  1.0000
  H   H63       1.0  0.96669  0.17471  0.47094  1.0000
  H   H64       1.0  0.04916  0.24088  0.09753  1.0000
  H   H65       1.0  0.04265  0.24600  0.20239  1.0000
  H   H66       1.0  0.21071  0.03355  0.30142  1.0000
  H   H67       1.0  0.11698  0.27666  0.17982  1.0000
  H   H68       1.0  0.05810  0.29106  0.14453  1.0000
  C   C52       1.0  0.18837  0.29841  0.00435  1.0000
  H   H69       1.0  0.01931  0.25252  0.21479  1.0000
  H   H70       1.0  0.15612  0.13472  0.08579  1.0000
  H   H71       1.0  0.12389  0.22583  0.35399  1.0000
  H   H72       1.0  0.07249  0.18828  0.40736  1.0000
  H   H73       1.0  0.13407  0.29703  0.07345  1.0000
  C   C53       1.0  0.98535  0.23190  0.41916  1.0000
  H   H74       1.0  0.02010  0.18680  0.47254  1.0000
  H   H75       1.0  0.04157  0.27562  0.18800  1.0000
  C   C54       1.0  0.97078  0.19915  0.35285  1.0000
  C   C55       1.0  0.13686  0.28652  0.02685  1.0000
  H   H76       1.0  0.05141  0.18023  0.41494  1.0000
  H   H77       1.0  0.01120  0.23737  0.47486  1.0000
  H   H78       1.0  0.00661  0.25255  0.40305  1.0000
  C   C56       1.0  0.14069  0.29493  0.43411  1.0000
  H   H79       1.0  0.10446  0.19703  0.35650  1.0000
  C   C57       1.0  0.07321  0.30771  0.18047  1.0000
  H   H80       1.0  0.05590  0.17903  0.47404  1.0000
  H   H81       1.0  0.14801  0.29556  0.41209  1.0000
  C   C58       1.0  0.02827  0.25435  0.23380  1.0000
  H   H82       1.0  0.12154  0.25049  0.22303  1.0000
  S   S17       1.0  0.20396  0.04794  0.39174  1.0000
  H   H83       1.0  0.19791  0.16101  0.07610  1.0000
  N   N3        1.0  0.18878  0.01361  0.28740  1.0000
  H   H84       1.0  0.06686  0.13144  0.47065  1.0000
  C   C59       1.0  0.07877  0.27559  0.19466  1.0000
  H   H85       1.0  0.08282  0.28608  0.21218  1.0000
  N   N4        1.0  0.17836  0.13914  0.05986  1.0000
  C   C60       1.0  0.16737  0.14511  0.07952  1.0000
  C   C61       1.0  0.18277  0.12702  0.07917  1.0000
  H   H86       1.0  0.97335  0.17876  0.28153  1.0000
  H   H87       1.0  0.09853  0.28737  0.39097  1.0000
  H   H88       1.0  0.09960  0.21032  0.38497  1.0000
  C   C62       1.0  0.10714  0.23744  0.34329  1.0000
  H   H89       1.0  0.02422  0.24323  0.24932  1.0000
  C   C63       1.0  0.17007  0.11561  0.10305  1.0000
  C   C64       1.0  0.17499  0.10207  0.11597  1.0000
  H   H90       1.0  0.08908  0.28043  0.35265  1.0000
  H   H91       1.0  0.18331  0.99181  0.31688  1.0000
  C   C65       1.0  0.06611  0.26419  0.11726  1.0000
  H   H92       1.0  0.17284  0.15020  0.10332  1.0000
  H   H93       1.0  0.07726  0.24666  0.00199  1.0000
  H   H94       1.0  0.18685  0.11911  0.06272  1.0000
  H   H95       1.0  0.19314  0.13379  0.09468  1.0000
  H   H96       1.0  0.21232  0.08032  0.24094  1.0000
  H   H97       1.0  0.14026  0.30746  0.47853  1.0000
  H   H98       1.0  0.09000  0.26407  0.15999  1.0000
  H   H99       1.0  0.13674  0.27093  0.22063  1.0000
  H   H100      1.0  0.17691  0.27551  0.03031  1.0000
  H   H101      1.0  0.10934  0.29537  0.35389  1.0000
  H   H102      1.0  0.14290  0.24161  0.32331  1.0000
  H   H103      1.0  0.08861  0.20366  0.34801  1.0000
  H   H104      1.0  0.17722  0.27860  0.19513  1.0000
  H   H105      1.0  0.11570  0.19648  0.46585  1.0000
  H   H106      1.0  0.16865  0.12304  0.12422  1.0000
  C   C66       1.0  0.05898  0.26119  0.15226  1.0000
  H   H107      1.0  0.18632  0.10763  0.12923  1.0000
  H   H108      1.0  0.16574  0.09415  0.13300  1.0000
  C   C67       1.0  0.96956  0.19774  0.44529  1.0000
  H   H109      1.0  0.17079  0.25721  0.33757  1.0000
  C   C68       1.0  0.18009  0.99521  0.29294  1.0000
  H   H110      1.0  0.13667  0.27409  0.28031  1.0000
  C   C69       1.0  0.19335  0.15410  0.05309  1.0000
  C   C70       1.0  0.10713  0.27733  0.19529  1.0000
  H   H111      1.0  0.99421  0.18944  0.47493  1.0000
  H   H112      1.0  0.12958  0.29621  0.42670  1.0000
  H   H113      1.0  0.05722  0.30415  0.29040  1.0000
  H   H114      1.0  0.17393  0.30839  0.41252  1.0000
  N   N5        1.0  0.98704  0.20730  0.45113  1.0000
  H   H115      1.0  0.10629  0.23998  0.36953  1.0000
  H   H116      1.0  0.07840  0.29406  0.14116  1.0000
  C   C71       1.0  0.18939  0.01743  0.25176  1.0000
  C   C72       1.0  0.99510  0.19503  0.45062  1.0000
  C   C73       1.0  0.02019  0.18891  0.44610  1.0000
  H   H117      1.0  0.15850  0.30511  0.47126  1.0000
  H   H118      1.0  0.13781  0.14939  0.07673  1.0000
  H   H119      1.0  0.98473  0.23843  0.44214  1.0000
  C   C74       1.0  0.10550  0.23623  0.47545  1.0000
  H   H120      1.0  0.11737  0.27397  0.37935  1.0000
  C   C75       1.0  0.01275  0.20141  0.43917  1.0000
  H   H121      1.0  0.15833  0.10952  0.09183  1.0000
  H   H122      1.0  0.15099  0.26085  0.30292  1.0000
  H   H123      1.0  0.17650  0.09415  0.09581  1.0000
  H   H124      1.0  0.17790  0.10916  0.44679  1.0000
  C   C76       1.0  0.17951  0.02262  0.30435  1.0000
  H   H125      1.0  0.06343  0.30721  0.19736  1.0000
  C   C77       1.0  0.05144  0.27364  0.20031  1.0000
  H   H126      1.0  0.11662  0.27707  0.31760  1.0000
  C   C78       1.0  0.17449  0.01786  0.34008  1.0000
  C   C79       1.0  0.15847  0.30516  0.17379  1.0000
  H   H127      1.0  0.16846  0.29923  0.21758  1.0000
  C   C80       1.0  0.15469  0.11761  0.02854  1.0000
  C   C81       1.0  0.16577  0.02828  0.35468  1.0000
  H   H128      1.0  0.11140  0.28929  0.20886  1.0000
  H   H129      1.0  0.14592  0.12157  0.04139  1.0000
  H   H130      1.0  0.14672  0.27550  0.45558  1.0000
  H   H131      1.0  0.15870  0.30210  0.14748  1.0000
  H   H132      1.0  0.16845  0.02065  0.29092  1.0000
  H   H133      1.0  0.09784  0.26036  0.31710  1.0000
  H   H134      1.0  0.06089  0.25034  0.16200  1.0000
  H   H135      1.0  0.15815  0.25474  0.37283  1.0000
  H   H136      1.0  0.98890  0.18445  0.43376  1.0000
  H   H137      1.0  0.20436  0.01682  0.32795  1.0000
  C   C82       1.0  0.06220  0.24786  0.09853  1.0000
  H   H138      1.0  0.16620  0.27444  0.35234  1.0000
  H   H139      1.0  0.18498  0.01994  0.35496  1.0000
  H   H140      1.0  0.16640  0.00467  0.34225  1.0000
  H   H141      1.0  0.10352  0.26695  0.21262  1.0000
  H   H142      1.0  0.07916  0.27068  0.11681  1.0000
  H   H143      1.0  0.97317  0.22542  0.40983  1.0000
  C   C83       1.0  0.11825  0.24921  0.29041  1.0000
  C   C84       1.0  0.06315  0.18742  0.42574  1.0000
  H   H144      1.0  0.13859  0.27429  0.33971  1.0000
  H   H145      1.0  0.06364  0.20002  0.43174  1.0000
  H   H146      1.0  0.06308  0.16594  0.44921  1.0000
  C   C85       1.0  0.14874  0.16056  0.08109  1.0000
  H   H147      1.0  0.15459  0.02585  0.34158  1.0000
  H   H148      1.0  0.16282  0.02504  0.38054  1.0000
  H   H149      1.0  0.17336  0.04170  0.35342  1.0000
  C   C86       1.0  0.99348  0.21946  0.42393  1.0000
  C   C87       1.0  0.08200  0.18753  0.47012  1.0000
  H   H150      1.0  0.15245  0.26954  0.00022  1.0000
  H   H151      1.0  0.19406  0.11203  0.47360  1.0000
  H   H152      1.0  0.99271  0.21262  0.40059  1.0000
  H   H153      1.0  0.00630  0.22688  0.42681  1.0000
  S   S18       1.0  0.20703  0.06950  0.47836  1.0000
  H   H154      1.0  0.18571  0.03374  0.19683  1.0000
  H   H155      1.0  0.19463  0.98609  0.25977  1.0000
  H   H156      1.0  0.01349  0.20326  0.41256  1.0000
  H   H157      1.0  0.12294  0.30104  0.04146  1.0000
  C   C88       1.0  0.18524  0.99143  0.38921  1.0000
  C   C89       1.0  0.98869  0.21590  0.48374  1.0000
  C   C90       1.0  0.19780  0.03597  0.24274  1.0000
  H   H158      1.0  0.12816  0.27623  0.47012  1.0000
  H   H159      1.0  0.17710  0.01291  0.24222  1.0000
  H   H160      1.0  0.06105  0.27187  0.10387  1.0000
  H   H161      1.0  0.19091  0.16295  0.03724  1.0000
  H   H162      1.0  0.15513  0.10650  0.04017  1.0000
  H   H163      1.0  0.20399  0.05160  0.20046  1.0000
  C   C91       1.0  0.19800  0.03824  0.20611  1.0000
  C   C92       1.0  0.14942  0.30865  0.45938  1.0000
  C   C93       1.0  0.18785  0.11858  0.46010  1.0000
  H   H164      1.0  0.19537  0.01063  0.23731  1.0000
  H   H165      1.0  0.96797  0.15969  0.36244  1.0000
  C   C94       1.0  0.18143  0.12839  0.48350  1.0000
  H   H166      1.0  0.20461  0.03144  0.19354  1.0000
  H   H167      1.0  0.18311  0.30880  0.18713  1.0000
  H   H168      1.0  0.11751  0.26623  0.00472  1.0000
  C   C95       1.0  0.18210  0.98307  0.26685  1.0000
  C   C96       1.0  0.17142  0.13157  0.02769  1.0000
  S   S19       1.0  0.12373  0.23614  0.48881  1.0000
  H   H169      1.0  0.17556  0.98348  0.24471  1.0000
  S   S20       1.0  0.11547  0.21915  0.00144  1.0000
  H   H170      1.0  0.13300  0.30420  0.13901  1.0000
  H   H171      1.0  0.20957  0.21014  0.08183  1.0000
  H   H172      1.0  0.17118  0.14128  0.01099  1.0000
  H   H173      1.0  0.21031  0.04106  0.25073  1.0000
  H   H174      1.0  0.17918  0.12606  0.01518  1.0000
  C   C97       1.0  0.00559  0.22779  0.49334  1.0000
  H   H175      1.0  0.20128  0.15144  0.48253  1.0000
  H   H176      1.0  0.21017  0.07923  0.05266  1.0000
  H   H177      1.0  0.20365  0.14365  0.01351  1.0000
  H   H178      1.0  0.11277  0.17647  0.48160  1.0000
  S   S21       1.0  0.21070  0.14163  0.15331  1.0000
  C   C98       1.0  0.08141  0.31078  0.27340  1.0000
  H   H179      1.0  0.14048  0.19602  0.48711  1.0000
  C   C99       1.0  0.11497  0.18949  0.48839  1.0000
  C   C100      1.0  0.20721  0.15049  0.03679  1.0000
  C   C101      1.0  0.06527  0.13236  0.49729  1.0000
  H   H180      1.0  0.05653  0.15180  0.49468  1.0000
  H   H181      1.0  0.96294  0.20609  0.44630  1.0000
  H   H182      1.0  0.96311  0.18487  0.25073  1.0000
  H   H183      1.0  0.18599  0.16744  0.49870  1.0000
  Fe  Fe9       1.0  0.05866  0.22867  0.81670  1.0000
  S   S22       1.0  0.03787  0.23393  0.79982  1.0000
  S   S23       1.0  0.07587  0.22078  0.78668  1.0000
  Fe  Fe10      1.0  0.05356  0.23620  0.88775  1.0000
  S   S24       1.0  0.03205  0.24185  0.87626  1.0000
  S   S25       1.0  0.06328  0.24117  0.93918  1.0000
  Fe  Fe11      1.0  0.02440  0.21934  0.84327  1.0000
  S   S26       1.0  0.99953  0.19935  0.83206  1.0000
  Fe  Fe12      1.0  0.04676  0.25582  0.83395  1.0000
  S   S27       1.0  0.04819  0.28188  0.82548  1.0000
  S   S28       1.0  0.04492  0.21262  0.85803  1.0000
  S   S29       1.0  0.06856  0.25170  0.84757  1.0000
  C   C102      1.0  0.18006  0.15891  0.51888  1.0000
  H   H184      1.0  0.07866  0.30306  0.85388  1.0000
  H   H185      1.0  0.15615  0.01045  0.77947  1.0000
  C   C103      1.0  0.08350  0.30285  0.90512  1.0000
  C   C104      1.0  0.96759  0.17892  0.83179  1.0000
  H   H186      1.0  0.11727  0.30798  0.88166  1.0000
  Fe  Fe13      1.0  0.14966  0.26131  0.59392  1.0000
  S   S30       1.0  0.15421  0.24348  0.55884  1.0000
  S   S31       1.0  0.16558  0.28772  0.60628  1.0000
  Fe  Fe14      1.0  0.11641  0.23730  0.61220  1.0000
  S   S32       1.0  0.11811  0.21756  0.57826  1.0000
  S   S33       1.0  0.09373  0.23634  0.63761  1.0000
  Fe  Fe15      1.0  0.14294  0.22432  0.59709  1.0000
  S   S34       1.0  0.14962  0.20250  0.61101  1.0000
  Fe  Fe16      1.0  0.12921  0.23805  0.54262  1.0000
  H   H187      1.0  0.09932  0.29357  0.81020  1.0000
  S   S35       1.0  0.14023  0.24271  0.63377  1.0000
  S   S36       1.0  0.12570  0.25723  0.57491  1.0000
  H   H188      1.0  0.21107  0.05388  0.73311  1.0000
  C   C105      1.0  0.17700  0.29308  0.54345  1.0000
  H   H189      1.0  0.97031  0.17486  0.80831  1.0000
  C   C106      1.0  0.11751  0.30854  0.77739  1.0000
  H   H190      1.0  0.16706  0.24171  0.95173  1.0000
  C   C107      1.0  0.19746  0.19632  0.62082  1.0000
  C   C108      1.0  0.18335  0.18443  0.63297  1.0000
  C   C109      1.0  0.16883  0.18647  0.62951  1.0000
  C   C110      1.0  0.16819  0.20033  0.61378  1.0000
  C   C111      1.0  0.18222  0.21189  0.60064  1.0000
  C   C112      1.0  0.19675  0.20995  0.60437  1.0000
  H   H191      1.0  0.18365  0.17389  0.64573  1.0000
  H   H192      1.0  0.15804  0.17733  0.63951  1.0000
  H   H193      1.0  0.18186  0.22234  0.58764  1.0000
  H   H194      1.0  0.21034  0.25814  0.64892  1.0000
  C   C113      1.0  0.18538  0.02808  0.81671  1.0000
  H   H195      1.0  0.14206  0.99807  0.72971  1.0000
  C   C114      1.0  0.10027  0.22455  0.98519  1.0000
  H   H196      1.0  0.15740  0.03540  0.86776  1.0000
  C   C115      1.0  0.06861  0.28719  0.91024  1.0000
  C   C116      1.0  0.19040  0.99383  0.87976  1.0000
  H   H197      1.0  0.16614  0.98614  0.89657  1.0000
  H   H198      1.0  0.08094  0.29102  0.72583  1.0000
  C   C117      1.0  0.07611  0.29658  0.74468  1.0000
  C   C118      1.0  0.07430  0.18334  0.52883  1.0000
  C   C119      1.0  0.11022  0.30509  0.81146  1.0000
  H   H199      1.0  0.20047  0.06805  0.69587  1.0000
  C   C120      1.0  0.06686  0.28672  0.76990  1.0000
  H   H200      1.0  0.10415  0.27610  0.72878  1.0000
  H   H201      1.0  0.06468  0.27365  0.77054  1.0000
  C   C121      1.0  0.07731  0.23426  0.95633  1.0000
  C   C122      1.0  0.08380  0.22439  0.93894  1.0000
  C   C123      1.0  0.09522  0.21958  0.95332  1.0000
  H   H202      1.0  0.11938  0.29060  0.53152  1.0000
  H   H203      1.0  0.13503  0.25217  0.99146  1.0000
  C   C124      1.0  0.16645  0.03022  0.86132  1.0000
  H   H204      1.0  0.08007  0.22051  0.91439  1.0000
  H   H205      1.0  0.10025  0.21204  0.93960  1.0000
  H   H206      1.0  0.09107  0.16037  0.51507  1.0000
  C   C125      1.0  0.15451  0.99921  0.73266  1.0000
  C   C126      1.0  0.08943  0.23263  0.67946  1.0000
  C   C127      1.0  0.07656  0.23559  0.69344  1.0000
  C   C128      1.0  0.07259  0.23258  0.72651  1.0000
  C   C129      1.0  0.08119  0.22609  0.74569  1.0000
  C   C130      1.0  0.09404  0.22308  0.73169  1.0000
  C   C131      1.0  0.09827  0.22651  0.69882  1.0000
  H   H207      1.0  0.06968  0.24035  0.67865  1.0000
  H   H208      1.0  0.06272  0.23502  0.73698  1.0000
  H   H209      1.0  0.10073  0.21804  0.74636  1.0000
  H   H210      1.0  0.10816  0.22412  0.68832  1.0000
  C   C132      1.0  0.97980  0.19116  0.84923  1.0000
  C   C133      1.0  0.97595  0.19621  0.87958  1.0000
  H   H211      1.0  0.13670  0.10210  0.99542  1.0000
  H   H212      1.0  0.18408  0.10405  0.59571  1.0000
  H   H213      1.0  0.98511  0.20554  0.89347  1.0000
  H   H214      1.0  0.11883  0.30270  0.82698  1.0000
  N   N6        1.0  0.12787  0.31115  0.63976  1.0000
  C   C134      1.0  0.12465  0.26536  0.94257  1.0000
  H   H215      1.0  0.98458  0.20662  0.50335  1.0000
  N   N7        1.0  0.08488  0.18109  0.50195  1.0000
  H   H216      1.0  0.99658  0.13557  0.70491  1.0000
  C   C135      1.0  0.11300  0.27336  0.93232  1.0000
  H   H217      1.0  0.18520  0.17826  0.55741  1.0000
  H   H218      1.0  0.01711  0.13824  0.70724  1.0000
  C   C136      1.0  0.10555  0.26661  0.89960  1.0000
  H   H219      1.0  0.19196  0.29256  0.98403  1.0000
  H   H220      1.0  0.11721  0.25270  0.95095  1.0000
  H   H221      1.0  0.13073  0.26319  0.92049  1.0000
  H   H222      1.0  0.00321  0.12779  0.73932  1.0000
  H   H223      1.0  0.01749  0.24511  0.53182  1.0000
  H   H224      1.0  0.10415  0.30942  0.62858  1.0000
  C   C137      1.0  0.14872  0.29087  0.95711  1.0000
  C   C138      1.0  0.12707  0.27798  0.99661  1.0000
  H   H225      1.0  0.18078  0.01485  0.82406  1.0000
  H   H226      1.0  0.10319  0.27057  0.95057  1.0000
  H   H227      1.0  0.11902  0.28695  0.93065  1.0000
  H   H228      1.0  0.19640  0.26176  0.58397  1.0000
  H   H229      1.0  0.17798  0.11995  0.61215  1.0000
  H   H230      1.0  0.02164  0.21373  0.74069  1.0000
  H   H231      1.0  0.05186  0.19351  0.55960  1.0000
  H   H232      1.0  0.16743  0.16029  0.56436  1.0000
  H   H233      1.0  0.09650  0.27173  0.89422  1.0000
  H   H234      1.0  0.11470  0.27015  0.87996  1.0000
  H   H235      1.0  0.09956  0.25290  0.90007  1.0000
  C   C139      1.0  0.13394  0.30923  0.60625  1.0000
  C   C140      1.0  0.06440  0.20192  0.56342  1.0000
  C   C141      1.0  0.16003  0.24552  0.97014  1.0000
  H   H236      1.0  0.16250  0.02482  0.74610  1.0000
  H   H237      1.0  0.03575  0.18745  0.72514  1.0000
  H   H238      1.0  0.01353  0.19619  0.71325  1.0000
  H   H239      1.0  0.11212  0.30482  0.57864  1.0000
  C   C142      1.0  0.17304  0.03558  0.82724  1.0000
  N   N8        1.0  0.19040  0.15025  0.53020  1.0000
  N   N9        1.0  0.02777  0.17323  0.78528  1.0000
  C   C143      1.0  0.02318  0.18670  0.77208  1.0000
  C   C144      1.0  0.01918  0.16765  0.81726  1.0000
  C   C145      1.0  0.04536  0.18085  0.79197  1.0000
  C   C146      1.0  0.02460  0.15877  0.76198  1.0000
  C   C147      1.0  0.01020  0.15460  0.73921  1.0000
  C   C148      1.0  0.03307  0.19597  0.74235  1.0000
  C   C149      1.0  0.05246  0.16973  0.80921  1.0000
  C   C150      1.0  0.00087  0.15906  0.81627  1.0000
  C   C151      1.0  0.99368  0.15587  0.85050  1.0000
  H   H240      1.0  0.13432  0.21003  0.51093  1.0000
  C   C152      1.0  0.18646  0.30294  0.51854  1.0000
  C   C153      1.0  0.07059  0.17761  0.80888  1.0000
  H   H241      1.0  0.02447  0.19631  0.79118  1.0000
  H   H242      1.0  0.01044  0.18197  0.76591  1.0000
  H   H243      1.0  0.02304  0.15851  0.82881  1.0000
  H   H244      1.0  0.02224  0.17841  0.83446  1.0000
  H   H245      1.0  0.04823  0.19233  0.80690  1.0000
  H   H246      1.0  0.05229  0.18487  0.76900  1.0000
  H   H247      1.0  0.03506  0.16086  0.74562  1.0000
  H   H248      1.0  0.02313  0.14741  0.77562  1.0000
  H   H249      1.0  0.07085  0.27596  0.90316  1.0000
  H   H250      1.0  0.99930  0.15396  0.75231  1.0000
  H   H251      1.0  0.14375  0.29308  0.90597  1.0000
  C   C154      1.0  0.20150  0.98825  0.86523  1.0000
  H   H252      1.0  0.04879  0.15735  0.79733  1.0000
  H   H253      1.0  0.04862  0.16817  0.83506  1.0000
  H   H254      1.0  0.99546  0.16663  0.80382  1.0000
  H   H255      1.0  0.99740  0.14682  0.80387  1.0000
  H   H256      1.0  0.99681  0.16770  0.86441  1.0000
  H   H257      1.0  0.98055  0.15000  0.84915  1.0000
  H   H258      1.0  0.99799  0.14751  0.86366  1.0000
  H   H259      1.0  0.11494  0.28630  0.58922  1.0000
  S   S37       1.0  0.21007  0.06297  0.87421  1.0000
  N   N10       1.0  0.13634  0.27460  0.96844  1.0000
  H   H260      1.0  0.09164  0.29339  0.86324  1.0000
  C   C155      1.0  0.00661  0.13802  0.72165  1.0000
  H   H261      1.0  0.01276  0.16421  0.72044  1.0000
  H   H262      1.0  0.07535  0.17942  0.78363  1.0000
  H   H263      1.0  0.07476  0.18982  0.82170  1.0000
  H   H264      1.0  0.07539  0.16947  0.82143  1.0000
  H   H265      1.0  0.20059  0.13061  0.57153  1.0000
  H   H266      1.0  0.16624  0.10569  0.58143  1.0000
  C   C156      1.0  0.20528  0.16240  0.54567  1.0000
  H   H267      1.0  0.17085  0.30907  0.88776  1.0000
  H   H268      1.0  0.06498  0.28615  0.93622  1.0000
  H   H269      1.0  0.18808  0.25159  0.73018  1.0000
  H   H270      1.0  0.16116  0.18421  0.55059  1.0000
  C   C157      1.0  0.21009  0.01581  0.79702  1.0000
  H   H271      1.0  0.16877  0.13072  0.54743  1.0000
  C   C158      1.0  0.07481  0.20114  0.53442  1.0000
  C   C159      1.0  0.11603  0.29394  0.69126  1.0000
  H   H272      1.0  0.18028  0.14380  0.57834  1.0000
  H   H273      1.0  0.03249  0.21247  0.70439  1.0000
  H   H274      1.0  0.10427  0.20439  0.51266  1.0000
  H   H275      1.0  0.15056  0.30408  0.67671  1.0000
  H   H276      1.0  0.14481  0.30125  0.96242  1.0000
  N   N11       1.0  0.19069  0.02973  0.78148  1.0000
  C   C160      1.0  0.12052  0.29424  0.65473  1.0000
  H   H277      1.0  0.16291  0.03201  0.81070  1.0000
  H   H278      1.0  0.20737  0.29087  0.72660  1.0000
  C   C161      1.0  0.12852  0.29899  0.54804  1.0000
  H   H279      1.0  0.12677  0.29966  0.70621  1.0000
  H   H280      1.0  0.13140  0.18989  0.52647  1.0000
  H   H281      1.0  0.20123  0.00346  0.79031  1.0000
  H   H282      1.0  0.20755  0.21915  0.59455  1.0000
  H   H283      1.0  0.17084  0.27991  0.53952  1.0000
  H   H284      1.0  0.14684  0.25158  0.93407  1.0000
  H   H285      1.0  0.16084  0.01650  0.86272  1.0000
  H   H286      1.0  0.06493  0.21477  0.56657  1.0000
  H   H287      1.0  0.18576  0.01457  0.73766  1.0000
  C   C162      1.0  0.17849  0.11288  0.58977  1.0000
  H   H288      1.0  0.17227  0.18692  0.51311  1.0000
  C   C163      1.0  0.14413  0.26342  0.98049  1.0000
  C   C164      1.0  0.15345  0.29222  0.92060  1.0000
  H   H289      1.0  0.19570  0.03443  0.83262  1.0000
  C   C165      1.0  0.19335  0.25748  0.70688  1.0000
  H   H290      1.0  0.14746  0.12286  0.98137  1.0000
  C   C166      1.0  0.15396  0.25782  0.95538  1.0000
  C   C167      1.0  0.18125  0.13755  0.55505  1.0000
  H   H291      1.0  0.17946  0.04671  0.76925  1.0000
  S   S38       1.0  0.19510  0.01514  0.89141  1.0000
  H   H292      1.0  0.17908  0.00326  0.77346  1.0000
  C   C168      1.0  0.12111  0.29932  0.58145  1.0000
  H   H293      1.0  0.17607  0.03490  0.87935  1.0000
  C   C169      1.0  0.08229  0.23913  0.98826  1.0000
  H   H294      1.0  0.20589  0.27758  0.76066  1.0000
  S   S39       1.0  0.20901  0.14707  0.63249  1.0000
  C   C170      1.0  0.16506  0.17762  0.53102  1.0000
  C   C171      1.0  0.19947  0.27189  0.60246  1.0000
  H   H295      1.0  0.06393  0.14972  0.53355  1.0000
  H   H296      1.0  0.02932  0.31142  0.76580  1.0000
  H   H297      1.0  0.14217  0.30263  0.60743  1.0000
  H   H298      1.0  0.18722  0.26598  0.70190  1.0000
  H   H299      1.0  0.04455  0.20533  0.75074  1.0000
  C   C172      1.0  0.17486  0.16874  0.54544  1.0000
  H   H300      1.0  0.12840  0.28723  0.65129  1.0000
  C   C173      1.0  0.17608  0.30017  0.57371  1.0000
  H   H301      1.0  0.07028  0.20521  0.51290  1.0000
  H   H302      1.0  0.09607  0.27017  0.68906  1.0000
  H   H303      1.0  0.16052  0.00158  0.70852  1.0000
  H   H304      1.0  0.15584  0.28141  0.91149  1.0000
  H   H305      1.0  0.18141  0.06059  0.71635  1.0000
  C   C174      1.0  0.20737  0.03007  0.77961  1.0000
  C   C175      1.0  0.16297  0.01342  0.75633  1.0000
  C   C176      1.0  0.19130  0.04596  0.76834  1.0000
  H   H306      1.0  0.19279  0.03935  0.71657  1.0000
  H   H307      1.0  0.10943  0.28660  0.64193  1.0000
  C   C177      1.0  0.10185  0.19097  0.51142  1.0000
  C   C178      1.0  0.06288  0.31061  0.79242  1.0000
  H   H308      1.0  0.00004  0.22795  0.54507  1.0000
  N   N12       1.0  0.19020  0.24458  0.68022  1.0000
  C   C179      1.0  0.19723  0.25218  0.64814  1.0000
  C   C180      1.0  0.19628  0.23134  0.68875  1.0000
  C   C181      1.0  0.17239  0.23639  0.67648  1.0000
  C   C182      1.0  0.19136  0.26527  0.63492  1.0000
  C   C183      1.0  0.16309  0.22429  0.70373  1.0000
  H   H309      1.0  0.08692  0.21015  0.53958  1.0000
  C   C184      1.0  0.14517  0.21895  0.70018  1.0000
  H   H310      1.0  0.19481  0.24225  0.62938  1.0000
  H   H311      1.0  0.06876  0.19852  0.58600  1.0000
  H   H312      1.0  0.19444  0.22865  0.71513  1.0000
  H   H313      1.0  0.18928  0.21947  0.67595  1.0000
  H   H314      1.0  0.16945  0.22924  0.65323  1.0000
  H   H315      1.0  0.16714  0.24592  0.67501  1.0000
  H   H316      1.0  0.17840  0.25986  0.63070  1.0000
  H   H317      1.0  0.19409  0.27596  0.65194  1.0000
  H   H318      1.0  0.16619  0.22998  0.72814  1.0000
  H   H319      1.0  0.16566  0.21286  0.70268  1.0000
  H   H320      1.0  0.10812  0.30068  0.69620  1.0000
  C   C185      1.0  0.10726  0.27616  0.70262  1.0000
  C   C186      1.0  0.06010  0.29371  0.79368  1.0000
  H   H321      1.0  0.16453  0.26862  0.94746  1.0000
  H   H322      1.0  0.14169  0.22978  0.70282  1.0000
  H   H323      1.0  0.14131  0.21287  0.67622  1.0000
  H   H324      1.0  0.13887  0.20994  0.71930  1.0000
  H   H325      1.0  0.14994  0.23425  0.97828  1.0000
  H   H326      1.0  0.15975  0.29408  0.97139  1.0000
  H   H327      1.0  0.20417  0.13718  0.50841  1.0000
  H   H328      1.0  0.20255  0.11220  0.78284  1.0000
  H   H329      1.0  0.12100  0.28615  0.98909  1.0000
  H   H330      1.0  0.19883  0.05640  0.78422  1.0000
  H   H331      1.0  0.16775  0.25123  0.99110  1.0000
  H   H332      1.0  0.13829  0.29440  0.54954  1.0000
  C   C187      1.0  0.18020  0.01499  0.76175  1.0000
  C   C188      1.0  0.18825  0.12450  0.56322  1.0000
  H   H333      1.0  0.09720  0.24067  0.52255  1.0000
  H   H334      1.0  0.99814  0.24468  0.52266  1.0000
  C   C189      1.0  0.21127  0.10835  0.77093  1.0000
  H   H335      1.0  0.20264  0.16671  0.56988  1.0000
  H   H336      1.0  0.18836  0.11662  0.54187  1.0000
  C   C190      1.0  0.02461  0.20513  0.72410  1.0000
  C   C191      1.0  0.19437  0.06437  0.71971  1.0000
  C   C192      1.0  0.08898  0.30453  0.86919  1.0000
  H   H337      1.0  0.17880  0.04933  0.82757  1.0000
  H   H338      1.0  0.07452  0.12943  0.50978  1.0000
  H   H339      1.0  0.07726  0.17907  0.55216  1.0000
  H   H340      1.0  0.19862  0.07529  0.73627  1.0000
  H   H341      1.0  0.11474  0.26878  0.69884  1.0000
  H   H342      1.0  0.20334  0.07871  0.54430  1.0000
  H   H343      1.0  0.21256  0.27763  0.60502  1.0000
  H   H344      1.0  0.10393  0.18747  0.53621  1.0000
  H   H345      1.0  0.07103  0.23877  0.50294  1.0000
  H   H346      1.0  0.12006  0.29775  0.76841  1.0000
  H   H347      1.0  0.21126  0.02985  0.75391  1.0000
  C   C193      1.0  0.17488  0.98210  0.88530  1.0000
  C   C194      1.0  0.14858  0.11234  0.99423  1.0000
  H   H348      1.0  0.19541  0.28150  0.59372  1.0000
  C   C195      1.0  0.19796  0.05008  0.73328  1.0000
  C   C196      1.0  0.00521  0.23689  0.52519  1.0000
  H   H349      1.0  0.15429  0.98729  0.74197  1.0000
  C   C197      1.0  0.16835  0.30769  0.91422  1.0000
  H   H350      1.0  0.16894  0.14976  0.50841  1.0000
  H   H351      1.0  0.15674  0.10787  0.98022  1.0000
  C   C198      1.0  0.06622  0.14968  0.50698  1.0000
  H   H352      1.0  0.05863  0.28757  0.89580  1.0000
  H   H353      1.0  0.06165  0.17555  0.52460  1.0000
  H   H354      1.0  0.13321  0.31160  0.53777  1.0000
  H   H355      1.0  0.15432  0.16863  0.51914  1.0000
  C   C199      1.0  0.13125  0.19680  0.50428  1.0000
  C   C200      1.0  0.19517  0.14218  0.50134  1.0000
  S   S40       1.0  0.20889  0.12695  0.71971  1.0000
  C   C201      1.0  0.21092  0.26814  0.71409  1.0000
  H   H356      1.0  0.20940  0.01738  0.82366  1.0000
  H   H357      1.0  0.09286  0.30183  0.92056  1.0000
  H   H358      1.0  0.17873  0.30662  0.92600  1.0000
  H   H359      1.0  0.10925  0.31069  0.76046  1.0000
  C   C202      1.0  0.21054  0.08987  0.53166  1.0000
  H   H360      1.0  0.21253  0.09331  0.81101  1.0000
  H   H361      1.0  0.20832  0.18650  0.52506  1.0000
  H   H362      1.0  0.21093  0.20918  0.69117  1.0000
  H   H363      1.0  0.17300  0.11945  0.50037  1.0000
  H   H364      1.0  0.05346  0.12302  0.50430  1.0000
  C   C203      1.0  0.21230  0.28239  0.73753  1.0000
  Fe  Fe17      1.0  0.02918  0.56628  0.40247  1.0000
  S   S41       1.0  0.05184  0.57876  0.37374  1.0000
  S   S42       1.0  0.00493  0.56508  0.38730  1.0000
  Fe  Fe18      1.0  0.04531  0.55422  0.45438  1.0000
  S   S43       1.0  0.06917  0.56544  0.42949  1.0000
  H   H365      1.0  0.17088  0.34661  0.15474  1.0000
  Fe  Fe19      1.0  0.06343  0.58820  0.42205  1.0000
  S   S44       1.0  0.08461  0.61343  0.42719  1.0000
  Fe  Fe20      1.0  0.05611  0.55557  0.38293  1.0000
  S   S45       1.0  0.06573  0.54300  0.34366  1.0000
  S   S46       1.0  0.04026  0.57744  0.45014  1.0000
  S   S47       1.0  0.03291  0.54273  0.40843  1.0000
  Fe  Fe21      1.0  0.11165  0.37608  0.22269  1.0000
  S   S48       1.0  0.11346  0.35459  0.19426  1.0000
  S   S49       1.0  0.08949  0.38207  0.21613  1.0000
  Fe  Fe22      1.0  0.14112  0.38014  0.26180  1.0000
  S   S50       1.0  0.14525  0.35943  0.23546  1.0000
  S   S51       1.0  0.15437  0.39406  0.30650  1.0000
  Fe  Fe23      1.0  0.13965  0.36972  0.19007  1.0000
  S   S52       1.0  0.14831  0.36495  0.14003  1.0000
  Fe  Fe24      1.0  0.11891  0.34547  0.24083  1.0000
  C   C204      1.0  0.14732  0.41321  0.01204  1.0000
  S   S53       1.0  0.13758  0.39198  0.21561  1.0000
  S   S54       1.0  0.11503  0.36552  0.27018  1.0000
  Fe  Fe25      1.0  0.02314  0.45236  0.14704  1.0000
  S   S55       1.0  0.04775  0.45921  0.12569  1.0000
  S   S56       1.0  0.00199  0.44215  0.11366  1.0000
  Fe  Fe26      1.0  0.03552  0.47363  0.20792  1.0000
  S   S57       1.0  0.06081  0.48206  0.19059  1.0000
  S   S58       1.0  0.02545  0.48230  0.25255  1.0000
  Fe  Fe27      1.0  0.05170  0.48515  0.14178  1.0000
  S   S59       1.0  0.06434  0.50690  0.10824  1.0000
  Fe  Fe28      1.0  0.05503  0.45531  0.17590  1.0000
  S   S60       1.0  0.07578  0.44697  0.18438  1.0000
  S   S61       1.0  0.02695  0.47862  0.16029  1.0000
  S   S62       1.0  0.02990  0.44659  0.19636  1.0000
  H   H366      1.0  0.17176  0.43423  0.05892  1.0000
  H   H367      1.0  0.04396  0.52096  0.22587  1.0000
  H   H368      1.0  0.05850  0.53555  0.14568  1.0000
  C   C205      1.0  0.16833  0.38894  0.32870  1.0000
  C   C206      1.0  0.17278  0.39599  0.35974  1.0000
  C   C207      1.0  0.18436  0.39288  0.37751  1.0000
  C   C208      1.0  0.19190  0.38293  0.36412  1.0000
  C   C209      1.0  0.18728  0.37567  0.33330  1.0000
  C   C210      1.0  0.17547  0.37850  0.31582  1.0000
  H   H369      1.0  0.16737  0.40409  0.36995  1.0000
  H   H370      1.0  0.18782  0.39863  0.40109  1.0000
  C   C211      1.0  0.05257  0.56707  0.27215  1.0000
  H   H371      1.0  0.17223  0.37303  0.29198  1.0000
  C   C212      1.0  0.05907  0.54632  0.16128  1.0000
  C   C213      1.0  0.19404  0.39392  0.11593  1.0000
  C   C214      1.0  0.17957  0.38716  0.13333  1.0000
  C   C215      1.0  0.16720  0.37327  0.12103  1.0000
  C   C216      1.0  0.16963  0.36583  0.09199  1.0000
  H   H372      1.0  0.08220  0.53348  0.15983  1.0000
  H   H373      1.0  0.01856  0.53207  0.27739  1.0000
  H   H374      1.0  0.17784  0.39295  0.15573  1.0000
  H   H375      1.0  0.16017  0.35496  0.08253  1.0000
  H   H376      1.0  0.19813  0.34219  0.39053  1.0000
  C   C217      1.0  0.07917  0.42857  0.19233  1.0000
  C   C218      1.0  0.09490  0.42937  0.19235  1.0000
  C   C219      1.0  0.09831  0.41532  0.19927  1.0000
  C   C220      1.0  0.08599  0.40020  0.20634  1.0000
  C   C221      1.0  0.07027  0.39939  0.20637  1.0000
  C   C222      1.0  0.06686  0.41343  0.19940  1.0000
  H   H377      1.0  0.10453  0.44098  0.18692  1.0000
  H   H378      1.0  0.11045  0.41619  0.19898  1.0000
  H   H379      1.0  0.06062  0.38779  0.21182  1.0000
  H   H380      1.0  0.05471  0.41255  0.19958  1.0000
  C   C223      1.0  0.04115  0.53245  0.04134  1.0000
  C   C224      1.0  0.03335  0.52490  0.07004  1.0000
  C   C225      1.0  0.04011  0.51669  0.09036  1.0000
  C   C226      1.0  0.05493  0.51625  0.08252  1.0000
  C   C227      1.0  0.10255  0.64425  0.01919  1.0000
  C   C228      1.0  0.19259  0.31564  0.00477  1.0000
  H   H381      1.0  0.02197  0.52534  0.07646  1.0000
  H   H382      1.0  0.03397  0.51089  0.11228  1.0000
  H   H383      1.0  0.04852  0.54889  0.15462  1.0000
  H   H384      1.0  0.97111  0.43148  0.01953  1.0000
  C   C229      1.0  0.05422  0.52599  0.31900  1.0000
  C   C230      1.0  0.06201  0.51931  0.29650  1.0000
  C   C231      1.0  0.05337  0.50594  0.27604  1.0000
  C   C232      1.0  0.03681  0.49906  0.27795  1.0000
  C   C233      1.0  0.02899  0.50568  0.30056  1.0000
  C   C234      1.0  0.03764  0.51911  0.32097  1.0000
  H   H385      1.0  0.07484  0.52454  0.29488  1.0000
  H   H386      1.0  0.05953  0.50091  0.25887  1.0000
  H   H387      1.0  0.01616  0.50045  0.30218  1.0000
  H   H388      1.0  0.03150  0.52419  0.33810  1.0000
  H   H389      1.0  0.14603  0.32682  0.24266  1.0000
  C   C235      1.0  0.09091  0.52324  0.19800  1.0000
  H   H390      1.0  0.15077  0.37712  0.03579  1.0000
  H   H391      1.0  0.16592  0.32931  0.12774  1.0000
  C   C236      1.0  0.96807  0.44831  0.46248  1.0000
  H   H392      1.0  0.08681  0.51652  0.22111  1.0000
  H   H393      1.0  0.06490  0.63136  0.45218  1.0000
  S   S63       1.0  0.03191  0.54225  0.01620  1.0000
  C   C237      1.0  0.98011  0.41306  0.13982  1.0000
  C   C238      1.0  0.98325  0.42576  0.11746  1.0000
  H   H394      1.0  0.02809  0.49759  0.01878  1.0000
  S   S64       1.0  0.20777  0.38000  0.38377  1.0000
  H   H395      1.0  0.07443  0.52400  0.04815  1.0000
  H   H396      1.0  0.98936  0.41309  0.15578  1.0000
  H   H397      1.0  0.01120  0.46119  0.44089  1.0000
  C   C239      1.0  0.99329  0.53158  0.37245  1.0000
  C   C240      1.0  0.98979  0.54561  0.37821  1.0000
  C   C241      1.0  0.08858  0.63478  0.43662  1.0000
  H   H398      1.0  0.17589  0.40123  0.06765  1.0000
  H   H399      1.0  0.00533  0.53243  0.37398  1.0000
  H   H400      1.0  0.97125  0.45014  0.41020  1.0000
  C   C242      1.0  0.14398  0.32385  0.17550  1.0000
  H   H401      1.0  0.10156  0.53468  0.20251  1.0000
  C   C243      1.0  0.19630  0.38672  0.08644  1.0000
  H   H402      1.0  0.16868  0.41428  0.12128  1.0000
  C   C244      1.0  0.03586  0.48019  0.43847  1.0000
  C   C245      1.0  0.98067  0.53349  0.28117  1.0000
  H   H403      1.0  0.19305  0.36800  0.32265  1.0000
  H   H404      1.0  0.08306  0.32334  0.26753  1.0000
  H   H405      1.0  0.04153  0.56819  0.26396  1.0000
  C   C246      1.0  0.04374  0.52626  0.20179  1.0000
  C   C247      1.0  0.05532  0.55297  0.25401  1.0000
  C   C248      1.0  0.02745  0.52783  0.19851  1.0000
  C   C249      1.0  0.01371  0.51155  0.20627  1.0000
  H   H406      1.0  0.04376  0.51642  0.18423  1.0000
  H   H407      1.0  0.07078  0.53325  0.23081  1.0000
  H   H408      1.0  0.06754  0.51575  0.17856  1.0000
  H   H409      1.0  0.06614  0.55204  0.26403  1.0000
  H   H410      1.0  0.04513  0.54139  0.25965  1.0000
  H   H411      1.0  0.02585  0.53115  0.17344  1.0000
  H   H412      1.0  0.00225  0.51284  0.20250  1.0000
  H   H413      1.0  0.01416  0.50139  0.19026  1.0000
  H   H414      1.0  0.01417  0.50820  0.23192  1.0000
  H   H415      1.0  0.09426  0.51512  0.18084  1.0000
  H   H416      1.0  0.06279  0.57898  0.26843  1.0000
  C   C250      1.0  0.14726  0.32929  0.42097  1.0000
  H   H417      1.0  0.13100  0.34455  0.38601  1.0000
  C   C251      1.0  0.08651  0.62973  0.02145  1.0000
  H   H418      1.0  0.02500  0.45785  0.49008  1.0000
  H   H419      1.0  0.05382  0.49287  0.01898  1.0000
  N   N13       1.0  0.96869  0.53413  0.25722  1.0000
  H   H420      1.0  0.07270  0.57318  0.16048  1.0000
  H   H421      1.0  0.15329  0.35630  0.42504  1.0000
  C   C252      1.0  0.18800  0.32312  0.03123  1.0000
  H   H422      1.0  0.99916  0.48096  0.42966  1.0000
  C   C253      1.0  0.15580  0.32229  0.24065  1.0000
  H   H423      1.0  0.08736  0.32505  0.14380  1.0000
  N   N14       1.0  0.10953  0.42077  0.30790  1.0000
  C   C254      1.0  0.09931  0.43087  0.31003  1.0000
  C   C255      1.0  0.11731  0.42109  0.34006  1.0000
  C   C256      1.0  0.12250  0.42881  0.28300  1.0000
  C   C257      1.0  0.10030  0.40321  0.29669  1.0000
  C   C258      1.0  0.08574  0.39284  0.31761  1.0000
  C   C259      1.0  0.09102  0.43212  0.27833  1.0000
  C   C260      1.0  0.13605  0.42219  0.28075  1.0000
  C   C261      1.0  0.10766  0.42143  0.37135  1.0000
  C   C262      1.0  0.11570  0.41853  0.40137  1.0000
  C   C263      1.0  0.07583  0.37661  0.30038  1.0000
  C   C264      1.0  0.08037  0.44183  0.28394  1.0000
  H   H424      1.0  0.10660  0.44374  0.31822  1.0000
  H   H425      1.0  0.08979  0.42602  0.32866  1.0000
  H   H426      1.0  0.12111  0.41042  0.34137  1.0000
  H   H427      1.0  0.12842  0.43241  0.34218  1.0000
  H   H428      1.0  0.12813  0.44242  0.28771  1.0000
  H   H429      1.0  0.11748  0.42727  0.25826  1.0000
  H   H430      1.0  0.09638  0.40305  0.27142  1.0000
  H   H431      1.0  0.10804  0.39602  0.29553  1.0000
  H   H432      1.0  0.07777  0.39947  0.32295  1.0000
  H   H433      1.0  0.08978  0.38953  0.34060  1.0000
  H   H434      1.0  0.09987  0.43872  0.25941  1.0000
  H   H435      1.0  0.08343  0.41968  0.26891  1.0000
  H   H436      1.0  0.13138  0.40887  0.27404  1.0000
  H   H437      1.0  0.14236  0.42378  0.30401  1.0000
  H   H438      1.0  0.10690  0.43377  0.37433  1.0000
  H   H439      1.0  0.09543  0.41199  0.37092  1.0000
  H   H440      1.0  0.11624  0.40605  0.40018  1.0000
  H   H441      1.0  0.12793  0.42806  0.40342  1.0000
  H   H442      1.0  0.10882  0.41929  0.42346  1.0000
  H   H443      1.0  0.06599  0.36896  0.31657  1.0000
  H   H444      1.0  0.07062  0.37914  0.27805  1.0000
  H   H445      1.0  0.08322  0.36943  0.29372  1.0000
  H   H446      1.0  0.07079  0.43550  0.30182  1.0000
  H   H447      1.0  0.08741  0.45462  0.29262  1.0000
  H   H448      1.0  0.07477  0.44264  0.26074  1.0000
  H   H449      1.0  0.16601  0.35066  0.39740  1.0000
  N   N15       1.0  0.16013  0.32296  0.17826  1.0000
  H   H450      1.0  0.14044  0.40006  0.01762  1.0000
  H   H451      1.0  0.02630  0.53732  0.21546  1.0000
  H   H452      1.0  0.15789  0.42640  0.25387  1.0000
  H   H453      1.0  0.14291  0.42983  0.23084  1.0000
  C   C265      1.0  0.07771  0.52745  0.18339  1.0000
  C   C266      1.0  0.14842  0.43144  0.25506  1.0000
  H   H454      1.0  0.02448  0.45559  0.41555  1.0000
  H   H455      1.0  0.06730  0.53580  0.49700  1.0000
  C   C267      1.0  0.07271  0.53888  0.20636  1.0000
  H   H456      1.0  0.05133  0.56447  0.29854  1.0000
  C   C268      1.0  0.96505  0.40002  0.14085  1.0000
  H   H457      1.0  0.08317  0.62642  0.04714  1.0000
  H   H458      1.0  0.98503  0.42154  0.01480  1.0000
  H   H459      1.0  0.08482  0.57437  0.10642  1.0000
  N   N16       1.0  0.05824  0.54194  0.19658  1.0000
  C   C269      1.0  0.05743  0.55612  0.21698  1.0000
  H   H460      1.0  0.98676  0.56845  0.26876  1.0000
  H   H461      1.0  0.05411  0.47545  0.04099  1.0000
  H   H462      1.0  0.15394  0.44485  0.26128  1.0000
  C   C270      1.0  0.17067  0.33380  0.15214  1.0000
  H   H463      1.0  0.00828  0.48200  0.46871  1.0000
  H   H464      1.0  0.99367  0.43954  0.18880  1.0000
  H   H465      1.0  0.01525  0.47092  0.32490  1.0000
  H   H466      1.0  0.04792  0.55998  0.20843  1.0000
  H   H467      1.0  0.08318  0.55074  0.20910  1.0000
  H   H468      1.0  0.07713  0.63288  0.01008  1.0000
  H   H469      1.0  0.02966  0.50798  0.45561  1.0000
  H   H470      1.0  0.97339  0.43529  0.07963  1.0000
  H   H471      1.0  0.06855  0.56730  0.21402  1.0000
  H   H472      1.0  0.19403  0.33831  0.17373  1.0000
  H   H473      1.0  0.20342  0.40497  0.12505  1.0000
  C   C271      1.0  0.15660  0.33763  0.47596  1.0000
  C   C272      1.0  0.98136  0.51654  0.36284  1.0000
  C   C273      1.0  0.18803  0.33500  0.15011  1.0000
  C   C274      1.0  0.17694  0.32163  0.40712  1.0000
  H   H474      1.0  0.99067  0.51580  0.26276  1.0000
  C   C275      1.0  0.14358  0.34798  0.37827  1.0000
  H   H475      1.0  0.14763  0.42050  0.03454  1.0000
  C   C276      1.0  0.98267  0.43265  0.00832  1.0000
  H   H476      1.0  0.18590  0.36656  0.05268  1.0000
  C   C277      1.0  0.16660  0.33023  0.21093  1.0000
  H   H477      1.0  0.20201  0.32807  0.41716  1.0000
  C   C278      1.0  0.16990  0.40827  0.05508  1.0000
  H   H478      1.0  0.07664  0.55212  0.10271  1.0000
  C   C279      1.0  0.99945  0.49374  0.01605  1.0000
  H   H479      1.0  0.11229  0.31405  0.16670  1.0000
  H   H480      1.0  0.99867  0.53534  0.24277  1.0000
  H   H481      1.0  0.08496  0.56128  0.15893  1.0000
  C   C280      1.0  0.17455  0.42514  0.07327  1.0000
  H   H482      1.0  0.98437  0.50595  0.35728  1.0000
  C   C281      1.0  0.04707  0.47957  0.02415  1.0000
  C   C282      1.0  0.07368  0.56170  0.15057  1.0000
  H   H483      1.0  0.13486  0.32644  0.42975  1.0000
  H   H484      1.0  0.17834  0.32970  0.21496  1.0000
  C   C283      1.0  0.18416  0.37241  0.07495  1.0000
  C   C284      1.0  0.19143  0.42013  0.01561  1.0000
  H   H485      1.0  0.14489  0.33681  0.17963  1.0000
  H   H486      1.0  0.97681  0.46526  0.07140  1.0000
  H   H487      1.0  0.12082  0.33247  0.14291  1.0000
  H   H488      1.0  0.97447  0.47715  0.12584  1.0000
  H   H489      1.0  0.98067  0.54346  0.21152  1.0000
  H   H490      1.0  0.18751  0.43036  0.07786  1.0000
  C   C285      1.0  0.07470  0.56294  0.11363  1.0000
  C   C286      1.0  0.99461  0.52942  0.26654  1.0000
  C   C287      1.0  0.06288  0.52412  0.05424  1.0000
  C   C288      1.0  0.17391  0.33067  0.43754  1.0000
  H   H491      1.0  0.17001  0.43533  0.11907  1.0000
  C   C289      1.0  0.97116  0.43391  0.21481  1.0000
  C   C290      1.0  0.99313  0.46399  0.01282  1.0000
  C   C291      1.0  0.99294  0.57791  0.22074  1.0000
  H   H492      1.0  0.06363  0.56336  0.10380  1.0000
  C   C292      1.0  0.00670  0.48935  0.44847  1.0000
  C   C293      1.0  0.19785  0.34828  0.12615  1.0000
  H   H493      1.0  0.04748  0.47942  0.43200  1.0000
  H   H494      1.0  0.99690  0.44690  0.04712  1.0000
  H   H495      1.0  0.02106  0.50950  0.41819  1.0000
  C   C294      1.0  0.15364  0.34700  0.40666  1.0000
  H   H496      1.0  0.04547  0.47224  0.00126  1.0000
  C   C295      1.0  0.13509  0.31746  0.14323  1.0000
  H   H497      1.0  0.00300  0.58904  0.22945  1.0000
  H   H498      1.0  0.97212  0.45576  0.18850  1.0000
  C   C296      1.0  0.05595  0.53198  0.03351  1.0000
  C   C297      1.0  0.02124  0.48393  0.01827  1.0000
  H   H499      1.0  0.04630  0.51407  0.38901  1.0000
  H   H500      1.0  0.96687  0.43519  0.46178  1.0000
  H   H501      1.0  0.05369  0.52588  0.44224  1.0000
  H   H502      1.0  0.17451  0.32217  0.27251  1.0000
  H   H503      1.0  0.00722  0.44867  0.00875  1.0000
  H   H504      1.0  0.00450  0.50795  0.48224  1.0000
  H   H505      1.0  0.98245  0.58126  0.21824  1.0000
  H   H506      1.0  0.06214  0.53780  0.01163  1.0000
  C   C298      1.0  0.99773  0.49968  0.46229  1.0000
  H   H507      1.0  0.18050  0.32786  0.45723  1.0000
  N   N17       1.0  0.17403  0.40922  0.01935  1.0000
  H   H508      1.0  0.16888  0.34371  0.21185  1.0000
  C   C299      1.0  0.99608  0.44824  0.02080  1.0000
  H   H509      1.0  0.19653  0.32208  0.37571  1.0000
  H   H510      1.0  0.14414  0.33592  0.48225  1.0000
  C   C300      1.0  0.98615  0.47795  0.11603  1.0000
  H   H511      1.0  0.04026  0.47138  0.37444  1.0000
  H   H512      1.0  0.99624  0.57416  0.19666  1.0000
  S   S65       1.0  0.19775  0.37057  0.47680  1.0000
  H   H513      1.0  0.16275  0.35087  0.46939  1.0000
  N   N18       1.0  0.15686  0.32637  0.44776  1.0000
  H   H514      1.0  0.98860  0.46737  0.12537  1.0000
  C   C301      1.0  0.07692  0.64023  0.44866  1.0000
  H   H515      1.0  0.99539  0.48970  0.12492  1.0000
  H   H516      1.0  0.98210  0.48740  0.07135  1.0000
  C   C302      1.0  0.98586  0.47740  0.07896  1.0000
  H   H517      1.0  0.99577  0.50741  0.44311  1.0000
  C   C303      1.0  0.03099  0.47700  0.03981  1.0000
  H   H518      1.0  0.19869  0.41605  0.03216  1.0000
  C   C304      1.0  0.16600  0.42319  0.10612  1.0000
  H   H519      1.0  0.96335  0.40327  0.49857  1.0000
  H   H520      1.0  0.17570  0.31920  0.07742  1.0000
  C   C305      1.0  0.02307  0.50061  0.43454  1.0000
  H   H521      1.0  0.08720  0.61877  0.00838  1.0000
  H   H522      1.0  0.07940  0.33412  0.17571  1.0000
  H   H523      1.0  0.98641  0.49021  0.01882  1.0000
  H   H524      1.0  0.18001  0.34422  0.43383  1.0000
  H   H525      1.0  0.01107  0.49158  0.07485  1.0000
  H   H526      1.0  0.06650  0.32177  0.14463  1.0000
  H   H527      1.0  0.02060  0.49319  0.37267  1.0000
  C   C306      1.0  0.00244  0.47979  0.06458  1.0000
  H   H528      1.0  0.00566  0.46997  0.07500  1.0000
  H   H529      1.0  0.18051  0.38799  0.01917  1.0000
  H   H530      1.0  0.08135  0.51691  0.41672  1.0000
  H   H531      1.0  0.19259  0.34563  0.10166  1.0000
  C   C307      1.0  0.07569  0.52573  0.42354  1.0000
  S   S66       1.0  0.11214  0.31810  0.25065  1.0000
  H   H532      1.0  0.19356  0.43311  0.02301  1.0000
  H   H533      1.0  0.04206  0.48801  0.34794  1.0000
  C   C308      1.0  0.02399  0.48416  0.38621  1.0000
  C   C309      1.0  0.04825  0.50555  0.40659  1.0000
  H   H534      1.0  0.14169  0.32465  0.12214  1.0000
  C   C310      1.0  0.19447  0.32896  0.39708  1.0000
  H   H535      1.0  0.07634  0.53371  0.40259  1.0000
  H   H536      1.0  0.02483  0.46366  0.04478  1.0000
  H   H537      1.0  0.97117  0.55506  0.37975  1.0000
  N   N19       1.0  0.03261  0.49220  0.41672  1.0000
  C   C311      1.0  0.03346  0.47754  0.36188  1.0000
  H   H538      1.0  0.01255  0.47391  0.39184  1.0000
  C   C312      1.0  0.05846  0.51645  0.43437  1.0000
  C   C313      1.0  0.02253  0.46527  0.33750  1.0000
  H   H539      1.0  0.98072  0.45625  0.46604  1.0000
  H   H540      1.0  0.96681  0.42037  0.20973  1.0000
  H   H541      1.0  0.17016  0.34073  0.27553  1.0000
  H   H542      1.0  0.08247  0.53378  0.44369  1.0000
  H   H543      1.0  0.05856  0.50894  0.45556  1.0000
  H   H544      1.0  0.05583  0.49997  0.39354  1.0000
  H   H545      1.0  0.02976  0.46182  0.31892  1.0000
  H   H546      1.0  0.99422  0.45414  0.22086  1.0000
  C   C314      1.0  0.98929  0.44083  0.21360  1.0000
  H   H547      1.0  0.03332  0.48357  0.06363  1.0000
  H   H548      1.0  0.01456  0.45386  0.34984  1.0000
  H   H549      1.0  0.98598  0.49141  0.47200  1.0000
  C   C315      1.0  0.15524  0.37836  0.01041  1.0000
  H   H550      1.0  0.03721  0.48495  0.46398  1.0000
  C   C316      1.0  0.97404  0.54430  0.37510  1.0000
  C   C317      1.0  0.11904  0.31920  0.14409  1.0000
  H   H551      1.0  0.21010  0.34858  0.12431  1.0000
  H   H552      1.0  0.15709  0.40108  0.05956  1.0000
  H   H553      1.0  0.13576  0.31639  0.19469  1.0000
  H   H554      1.0  0.15296  0.41870  0.10291  1.0000
  H   H555      1.0  0.01313  0.54832  0.29457  1.0000
  H   H556      1.0  0.99373  0.43396  0.23054  1.0000
  H   H557      1.0  0.19850  0.36070  0.13444  1.0000
  C   C318      1.0  0.97118  0.42544  0.09664  1.0000
  H   H558      1.0  0.98055  0.46177  0.01888  1.0000
  C   C319      1.0  0.97572  0.54787  0.23302  1.0000
  N   N20       1.0  0.00411  0.48004  0.02808  1.0000
  H   H559      1.0  0.14810  0.36086  0.36915  1.0000
  H   H560      1.0  0.19119  0.33639  0.03181  1.0000
  C   C320      1.0  0.16492  0.32704  0.27232  1.0000
  C   C321      1.0  0.07683  0.32304  0.15972  1.0000
  C   C322      1.0  0.02356  0.46202  0.43851  1.0000
  H   H561      1.0  0.18828  0.32302  0.14119  1.0000
  C   C323      1.0  0.98938  0.56394  0.24499  1.0000
  H   H562      1.0  0.00507  0.50523  0.03100  1.0000
  H   H563      1.0  0.00047  0.56175  0.24777  1.0000
  H   H564      1.0  0.98555  0.54509  0.29582  1.0000
  H   H565      1.0  0.97220  0.51536  0.22645  1.0000
  H   H566      1.0  0.96748  0.55447  0.31281  1.0000
  H   H567      1.0  0.00552  0.52787  0.31199  1.0000
  C   C324      1.0  0.00879  0.53483  0.28906  1.0000
  H   H568      1.0  0.15668  0.32172  0.29304  1.0000
  H   H569      1.0  0.14426  0.33969  0.35803  1.0000
  H   H570      1.0  0.97472  0.52373  0.29916  1.0000
  H   H571      1.0  0.14317  0.35194  0.00185  1.0000
  H   H572      1.0  0.11196  0.31264  0.12290  1.0000
  H   H573      1.0  0.17006  0.32268  0.38612  1.0000
  C   C325      1.0  0.96340  0.45220  0.42926  1.0000
  C   C326      1.0  0.02650  0.45235  0.46633  1.0000
  H   H574      1.0  0.14617  0.32071  0.40018  1.0000
  H   H575      1.0  0.11328  0.64268  0.42295  1.0000
  H   H576      1.0  0.96763  0.46277  0.24194  1.0000
  H   H577      1.0  0.96745  0.43572  0.23983  1.0000
  H   H578      1.0  0.16319  0.35798  0.01557  1.0000
  H   H579      1.0  0.96617  0.55138  0.22329  1.0000
  H   H580      1.0  0.96676  0.43727  0.16550  1.0000
  C   C327      1.0  0.17930  0.31339  0.05712  1.0000
  C   C328      1.0  0.17198  0.39217  0.00690  1.0000
  H   H581      1.0  0.11140  0.64061  0.03111  1.0000
  C   C329      1.0  0.96574  0.51534  0.35883  1.0000
  C   C330      1.0  0.96460  0.44228  0.18928  1.0000
  H   H582      1.0  0.03868  0.45239  0.46452  1.0000
  S   S67       1.0  0.20724  0.33161  0.49198  1.0000
  C   C331      1.0  0.15536  0.36155  0.99982  1.0000
  H   H583      1.0  0.96460  0.46533  0.42831  1.0000
  H   H584      1.0  0.01787  0.43930  0.46532  1.0000
  C   C332      1.0  0.16445  0.41640  0.99976  1.0000
  H   H585      1.0  0.96272  0.39009  0.15785  1.0000
  Fe  Fe29      1.0  0.02899  0.56025  0.90173  1.0000
  S   S68       1.0  0.05321  0.56818  0.87809  1.0000
  S   S69       1.0  0.00956  0.55904  0.86691  1.0000
  Fe  Fe30      1.0  0.04102  0.55292  0.96609  1.0000
  S   S70       1.0  0.06587  0.56007  0.94646  1.0000
  C   C333      1.0  0.13541  0.32774  0.92713  1.0000
  Fe  Fe31      1.0  0.06269  0.58220  0.92478  1.0000
  S   S71       1.0  0.08467  0.60693  0.92376  1.0000
  Fe  Fe32      1.0  0.05437  0.54585  0.90145  1.0000
  S   S72       1.0  0.06131  0.52599  0.87705  1.0000
  S   S73       1.0  0.03822  0.57579  0.94699  1.0000
  S   S74       1.0  0.02981  0.53723  0.92257  1.0000
  Fe  Fe33      1.0  0.11923  0.38899  0.72864  1.0000
  S   S75       1.0  0.11762  0.37153  0.68643  1.0000
  S   S76       1.0  0.11296  0.41210  0.72990  1.0000
  Fe  Fe34      1.0  0.13289  0.37056  0.77437  1.0000
  S   S77       1.0  0.13198  0.35208  0.73545  1.0000
  S   S78       1.0  0.13941  0.36399  0.82379  1.0000
  Fe  Fe35      1.0  0.14180  0.37329  0.70116  1.0000
  S   S79       1.0  0.16047  0.36828  0.67005  1.0000
  Fe  Fe36      1.0  0.10813  0.35149  0.72366  1.0000
  S   S80       1.0  0.09054  0.32571  0.71189  1.0000
  S   S81       1.0  0.14439  0.39211  0.74126  1.0000
  S   S82       1.0  0.10796  0.36855  0.76490  1.0000
  Fe  Fe37      1.0  0.02068  0.46107  0.65884  1.0000
  S   S83       1.0  0.03673  0.45343  0.62604  1.0000
  S   S84       1.0  0.99466  0.45715  0.65536  1.0000
  Fe  Fe38      1.0  0.04860  0.48607  0.69688  1.0000
  S   S85       1.0  0.06680  0.48002  0.66709  1.0000
  S   S86       1.0  0.05273  0.50978  0.72625  1.0000
  Fe  Fe39      1.0  0.05238  0.48047  0.62377  1.0000
  S   S87       1.0  0.06462  0.49475  0.57877  1.0000
  Fe  Fe40      1.0  0.05006  0.45325  0.67176  1.0000
  S   S88       1.0  0.05625  0.43011  0.67548  1.0000
  S   S89       1.0  0.03547  0.48799  0.65295  1.0000
  S   S90       1.0  0.03267  0.45932  0.70490  1.0000
  C   C334      1.0  0.00377  0.49887  0.98011  1.0000
  H   H586      1.0  0.17009  0.35290  0.80535  1.0000
  H   H587      1.0  0.19557  0.35727  0.71923  1.0000
  C   C335      1.0  0.15766  0.37351  0.84421  1.0000
  C   C336      1.0  0.16090  0.36514  0.87003  1.0000
  C   C337      1.0  0.17500  0.37229  0.88769  1.0000
  C   C338      1.0  0.18600  0.38804  0.87981  1.0000
  C   C339      1.0  0.18282  0.39642  0.85383  1.0000
  C   C340      1.0  0.16874  0.38917  0.83599  1.0000
  H   H588      1.0  0.15247  0.35301  0.87628  1.0000
  H   H589      1.0  0.97488  0.43355  0.51371  1.0000
  H   H590      1.0  0.02029  0.32523  0.78111  1.0000
  H   H591      1.0  0.16635  0.39582  0.81634  1.0000
  C   C341      1.0  0.18779  0.39276  0.57756  1.0000
  C   C342      1.0  0.18826  0.37796  0.58867  1.0000
  C   C343      1.0  0.17957  0.37050  0.61669  1.0000
  C   C344      1.0  0.17026  0.37769  0.63379  1.0000
  C   C345      1.0  0.16951  0.39228  0.62232  1.0000
  C   C346      1.0  0.17832  0.39983  0.59447  1.0000
  H   H592      1.0  0.19548  0.37238  0.57588  1.0000
  H   H593      1.0  0.18012  0.35913  0.62514  1.0000
  H   H594      1.0  0.16230  0.39788  0.63502  1.0000
  H   H595      1.0  0.98858  0.48038  0.77235  1.0000
  C   C347      1.0  0.07307  0.42633  0.68869  1.0000
  C   C348      1.0  0.07543  0.41221  0.67673  1.0000
  C   C349      1.0  0.08780  0.40793  0.68827  1.0000
  C   C350      1.0  0.09776  0.41745  0.71270  1.0000
  C   C351      1.0  0.09554  0.43168  0.72434  1.0000
  C   C352      1.0  0.08335  0.43616  0.71236  1.0000
  H   H596      1.0  0.06763  0.40455  0.65831  1.0000
  H   H597      1.0  0.08962  0.39728  0.67825  1.0000
  H   H598      1.0  0.10323  0.43927  0.74297  1.0000
  H   H599      1.0  0.08171  0.44700  0.72198  1.0000
  Fe  Fe41      1.0  0.21221  0.39161  0.50927  1.0000
  C   C353      1.0  0.03477  0.51476  0.54323  1.0000
  C   C354      1.0  0.04086  0.50510  0.56126  1.0000
  C   C355      1.0  0.05643  0.50634  0.55590  1.0000
  C   C356      1.0  0.06584  0.51727  0.53225  1.0000
  H   H600      1.0  0.14576  0.33004  0.91057  1.0000
  H   H601      1.0  0.02276  0.51386  0.54774  1.0000
  H   H602      1.0  0.03357  0.49679  0.57951  1.0000
  H   H603      1.0  0.14730  0.33466  0.64688  1.0000
  C   C357      1.0  0.12113  0.57944  0.83602  1.0000
  C   C358      1.0  0.05750  0.52083  0.83558  1.0000
  C   C359      1.0  0.05732  0.50562  0.82341  1.0000
  C   C360      1.0  0.05532  0.50170  0.79006  1.0000
  C   C361      1.0  0.05404  0.51324  0.76859  1.0000
  C   C362      1.0  0.05436  0.52847  0.78078  1.0000
  C   C363      1.0  0.05581  0.53216  0.81415  1.0000
  H   H604      1.0  0.05881  0.49686  0.83982  1.0000
  H   H605      1.0  0.05526  0.48999  0.78090  1.0000
  H   H606      1.0  0.05363  0.53755  0.76426  1.0000
  H   H607      1.0  0.05602  0.54391  0.82323  1.0000
  C   C364      1.0  0.08854  0.62854  0.92932  1.0000
  H   H608      1.0  0.12139  0.56394  0.89796  1.0000
  C   C365      1.0  0.17377  0.36532  0.75886  1.0000
  C   C366      1.0  0.07688  0.63430  0.93999  1.0000
  H   H609      1.0  0.13219  0.56485  0.80821  1.0000
  C   C367      1.0  0.01668  0.49636  0.86780  1.0000
  H   H610      1.0  0.06492  0.62552  0.94452  1.0000
  C   C368      1.0  0.19338  0.32725  0.55327  1.0000
  C   C369      1.0  0.98263  0.42500  0.63101  1.0000
  C   C370      1.0  0.97993  0.43938  0.63836  1.0000
  H   H611      1.0  0.99900  0.53336  0.76591  1.0000
  H   H612      1.0  0.13253  0.56241  0.85101  1.0000
  C   C371      1.0  0.18414  0.31732  0.57845  1.0000
  H   H613      1.0  0.99422  0.42474  0.63481  1.0000
  C   C372      1.0  0.02297  0.54307  0.78251  1.0000
  C   C373      1.0  0.16233  0.34637  0.53514  1.0000
  C   C374      1.0  0.98945  0.54532  0.87083  1.0000
  C   C375      1.0  0.98378  0.53548  0.89814  1.0000
  H   H614      1.0  0.16790  0.35968  0.52872  1.0000
  H   H615      1.0  0.96643  0.38901  0.71782  1.0000
  H   H616      1.0  0.99178  0.53618  0.91756  1.0000
  H   H617      1.0  0.15636  0.34168  0.77438  1.0000
  C   C376      1.0  0.11540  0.31851  0.63868  1.0000
  C   C377      1.0  0.09415  0.59202  0.84496  1.0000
  H   H618      1.0  0.97117  0.45788  0.70355  1.0000
  C   C378      1.0  0.07275  0.32062  0.76815  1.0000
  H   H619      1.0  0.96829  0.43247  0.71534  1.0000
  H   H620      1.0  0.11054  0.53344  0.77712  1.0000
  H   H621      1.0  0.07508  0.33370  0.76768  1.0000
  H   H622      1.0  0.19226  0.38052  0.69337  1.0000
  C   C379      1.0  0.13362  0.57146  0.83191  1.0000
  N   N21       1.0  0.05695  0.36904  0.74932  1.0000
  C   C380      1.0  0.05312  0.38341  0.73838  1.0000
  C   C381      1.0  0.06839  0.36630  0.72510  1.0000
  C   C382      1.0  0.04173  0.35394  0.75174  1.0000
  C   C383      1.0  0.06466  0.37253  0.78212  1.0000
  C   C384      1.0  0.07860  0.38957  0.78618  1.0000
  C   C385      1.0  0.04220  0.38870  0.76144  1.0000
  C   C386      1.0  0.04363  0.33741  0.75836  1.0000
  C   C387      1.0  0.06193  0.36085  0.69045  1.0000
  C   C388      1.0  0.07406  0.35718  0.66894  1.0000
  C   C389      1.0  0.08633  0.39128  0.81918  1.0000
  C   C390      1.0  0.04094  0.40464  0.74990  1.0000
  H   H623      1.0  0.04706  0.38056  0.71464  1.0000
  H   H624      1.0  0.06420  0.39441  0.73388  1.0000
  H   H625      1.0  0.07915  0.37781  0.72226  1.0000
  H   H626      1.0  0.07294  0.35708  0.73415  1.0000
  H   H627      1.0  0.03460  0.35232  0.72946  1.0000
  H   H628      1.0  0.03407  0.35564  0.77171  1.0000
  H   H629      1.0  0.05578  0.37154  0.80172  1.0000
  H   H630      1.0  0.06945  0.36295  0.78771  1.0000
  H   H631      1.0  0.07458  0.39996  0.78410  1.0000
  H   H632      1.0  0.08790  0.39107  0.76759  1.0000
  H   H633      1.0  0.03004  0.37896  0.76199  1.0000
  H   H634      1.0  0.04669  0.39098  0.78652  1.0000
  H   H635      1.0  0.04981  0.33820  0.78153  1.0000
  H   H636      1.0  0.05044  0.33423  0.73859  1.0000
  H   H637      1.0  0.05097  0.34947  0.69078  1.0000
  H   H638      1.0  0.05935  0.37080  0.67864  1.0000
  H   H639      1.0  0.06913  0.35323  0.64442  1.0000
  H   H640      1.0  0.08511  0.36840  0.66643  1.0000
  H   H641      1.0  0.07693  0.34705  0.67924  1.0000
  H   H642      1.0  0.09583  0.40384  0.82160  1.0000
  H   H643      1.0  0.07749  0.38961  0.83908  1.0000
  H   H644      1.0  0.09187  0.38207  0.82127  1.0000
  H   H645      1.0  0.03626  0.40300  0.72489  1.0000
  H   H646      1.0  0.03278  0.40802  0.76618  1.0000
  H   H647      1.0  0.05275  0.41502  0.75015  1.0000
  H   H648      1.0  0.99769  0.48315  0.71422  1.0000
  H   H649      1.0  0.98185  0.43292  0.98155  1.0000
  H   H650      1.0  0.11318  0.63609  0.91530  1.0000
  C   C391      1.0  0.96584  0.40017  0.70655  1.0000
  C   C392      1.0  0.10600  0.34031  0.61842  1.0000
  H   H651      1.0  0.16810  0.34451  0.55728  1.0000
  H   H652      1.0  0.05740  0.31596  0.81041  1.0000
  C   C393      1.0  0.97885  0.54446  0.84599  1.0000
  C   C394      1.0  0.14155  0.32263  0.65939  1.0000
  H   H653      1.0  0.16124  0.31580  0.64249  1.0000
  H   H654      1.0  0.00078  0.53792  0.80817  1.0000
  H   H655      1.0  0.99604  0.49155  0.56780  1.0000
  H   H656      1.0  0.97637  0.47554  0.52564  1.0000
  H   H657      1.0  0.12401  0.33391  0.59492  1.0000
  H   H658      1.0  0.98006  0.49312  0.80991  1.0000
  H   H659      1.0  0.01107  0.48628  0.88543  1.0000
  C   C395      1.0  0.97709  0.46353  0.53189  1.0000
  C   C396      1.0  0.96755  0.52533  0.90103  1.0000
  H   H660      1.0  0.07473  0.57970  0.56268  1.0000
  H   H661      1.0  0.03005  0.54299  0.80390  1.0000
  S   S91       1.0  0.20363  0.39788  0.90210  1.0000
  C   C397      1.0  0.18045  0.41976  0.70212  1.0000
  C   C398      1.0  0.19077  0.37768  0.76688  1.0000
  C   C399      1.0  0.00542  0.50619  0.76540  1.0000
  H   H662      1.0  0.02305  0.51418  0.81528  1.0000
  C   C400      1.0  0.12008  0.33501  0.62014  1.0000
  H   H663      1.0  0.13687  0.41102  0.96427  1.0000
  H   H664      1.0  0.98244  0.50384  0.97182  1.0000
  C   C401      1.0  0.99796  0.47999  0.57233  1.0000
  H   H665      1.0  0.10133  0.34134  0.64311  1.0000
  H   H666      1.0  0.18350  0.32291  0.60177  1.0000
  H   H667      1.0  0.02292  0.50804  0.88146  1.0000
  C   C402      1.0  0.99552  0.51009  0.96910  1.0000
  S   S92       1.0  0.20369  0.32743  0.97200  1.0000
  H   H668      1.0  0.09132  0.60475  0.80209  1.0000
  H   H669      1.0  0.98308  0.55225  0.82503  1.0000
  H   H670      1.0  0.14434  0.43181  0.98141  1.0000
  H   H671      1.0  0.97365  0.46598  0.58472  1.0000
  H   H672      1.0  0.13727  0.32578  0.68310  1.0000
  H   H673      1.0  0.18343  0.40353  0.75820  1.0000
  C   C403      1.0  0.16743  0.32841  0.68817  1.0000
  H   H674      1.0  0.96427  0.46479  0.73995  1.0000
  N   N22       1.0  0.10299  0.32009  0.86059  1.0000
  C   C404      1.0  0.09989  0.33556  0.86837  1.0000
  H   H675      1.0  0.96311  0.51832  0.92289  1.0000
  H   H676      1.0  0.12880  0.31960  0.77766  1.0000
  H   H677      1.0  0.09633  0.33119  0.60396  1.0000
  C   C405      1.0  0.08561  0.33724  0.85153  1.0000
  H   H678      1.0  0.11217  0.32122  0.66364  1.0000
  C   C406      1.0  0.08263  0.35226  0.86478  1.0000
  H   H679      1.0  0.97222  0.39956  0.61434  1.0000
  H   H680      1.0  0.11058  0.34670  0.86189  1.0000
  H   H681      1.0  0.09795  0.33679  0.89471  1.0000
  H   H682      1.0  0.00747  0.47931  0.55579  1.0000
  H   H683      1.0  0.12853  0.32674  0.86173  1.0000
  H   H684      1.0  0.11545  0.33154  0.81683  1.0000
  H   H685      1.0  0.13119  0.31491  0.93596  1.0000
  H   H686      1.0  0.17786  0.41125  0.58598  1.0000
  H   H687      1.0  0.99830  0.51305  0.94312  1.0000
  H   H688      1.0  0.08802  0.33912  0.82516  1.0000
  H   H689      1.0  0.07460  0.32620  0.85562  1.0000
  H   H690      1.0  0.19123  0.40865  0.84769  1.0000
  H   H691      1.0  0.01330  0.52416  0.84042  1.0000
  H   H692      1.0  0.12598  0.34403  0.90564  1.0000
  H   H693      1.0  0.10857  0.54577  0.94317  1.0000
  H   H694      1.0  0.07299  0.35379  0.85100  1.0000
  H   H695      1.0  0.07896  0.35054  0.89072  1.0000
  H   H696      1.0  0.09354  0.36368  0.86237  1.0000
  H   H697      1.0  0.02780  0.53878  0.76087  1.0000
  H   H698      1.0  0.99863  0.48622  0.83247  1.0000
  H   H699      1.0  0.97333  0.52030  0.77471  1.0000
  H   H700      1.0  0.02090  0.56618  0.79800  1.0000
  H   H701      1.0  0.98700  0.46278  0.51666  1.0000
  H   H702      1.0  0.17704  0.32384  0.69200  1.0000
  H   H703      1.0  0.96685  0.43169  0.55338  1.0000
  H   H704      1.0  0.14129  0.32152  0.59593  1.0000
  H   H705      1.0  0.19807  0.37040  0.77169  1.0000
  H   H706      1.0  0.17277  0.34090  0.67733  1.0000
  H   H707      1.0  0.20028  0.40916  0.97509  1.0000
  N   N23       1.0  0.05516  0.54317  0.63189  1.0000
  C   C407      1.0  0.06254  0.53093  0.63956  1.0000
  C   C408      1.0  0.03739  0.53403  0.62995  1.0000
  C   C409      1.0  0.06123  0.54996  0.59865  1.0000
  C   C410      1.0  0.05939  0.55743  0.65599  1.0000
  C   C411      1.0  0.06174  0.55369  0.69177  1.0000
  C   C412      1.0  0.08090  0.53759  0.63657  1.0000
  C   C413      1.0  0.05331  0.56085  0.58329  1.0000
  C   C414      1.0  0.02847  0.52652  0.66177  1.0000
  C   C415      1.0  0.01128  0.51507  0.65521  1.0000
  C   C416      1.0  0.06343  0.56844  0.71409  1.0000
  C   C417      1.0  0.08750  0.52612  0.65283  1.0000
  C   C418      1.0  0.06310  0.57055  0.55454  1.0000
  H   H708      1.0  0.05792  0.51993  0.62302  1.0000
  H   H709      1.0  0.05905  0.52580  0.66409  1.0000
  H   H710      1.0  0.03162  0.54235  0.62179  1.0000
  H   H711      1.0  0.03459  0.52395  0.61134  1.0000
  H   H712      1.0  0.05993  0.53967  0.58117  1.0000
  H   H713      1.0  0.07419  0.55758  0.59929  1.0000
  H   H714      1.0  0.07065  0.56768  0.64861  1.0000
  H   H715      1.0  0.05024  0.56296  0.65582  1.0000
  H   H716      1.0  0.07266  0.55113  0.69404  1.0000
  H   H717      1.0  0.05179  0.54281  0.70123  1.0000
  H   H718      1.0  0.08455  0.53828  0.61058  1.0000
  H   H719      1.0  0.08651  0.55015  0.64750  1.0000
  H   H720      1.0  0.05187  0.56985  0.60115  1.0000
  H   H721      1.0  0.04144  0.55289  0.57390  1.0000
  H   H722      1.0  0.03403  0.51917  0.67441  1.0000
  H   H723      1.0  0.02815  0.53659  0.67829  1.0000
  H   H724      1.0  0.00490  0.52189  0.64317  1.0000
  H   H725      1.0  0.01087  0.50441  0.63958  1.0000
  H   H726      1.0  0.00508  0.51013  0.67844  1.0000
  H   H727      1.0  0.05241  0.57099  0.71411  1.0000
  H   H728      1.0  0.06555  0.56563  0.73925  1.0000
  H   H729      1.0  0.07361  0.57966  0.70616  1.0000
  H   H730      1.0  0.08292  0.51375  0.64072  1.0000
  H   H731      1.0  0.10064  0.53129  0.65063  1.0000
  H   H732      1.0  0.08412  0.52472  0.67896  1.0000
  H   H733      1.0  0.18531  0.43041  0.68547  1.0000
  H   H734      1.0  0.15957  0.36193  0.97426  1.0000
  H   H735      1.0  0.17752  0.33925  0.50363  1.0000
  N   N24       1.0  0.10403  0.56785  0.84116  1.0000
  C   C419      1.0  0.10001  0.55128  0.82425  1.0000
  C   C420      1.0  0.10006  0.56505  0.87686  1.0000
  C   C421      1.0  0.10867  0.55587  0.89552  1.0000
  C   C422      1.0  0.10178  0.55171  0.92980  1.0000
  H   H736      1.0  0.08812  0.54255  0.83241  1.0000
  H   H737      1.0  0.10289  0.57703  0.89015  1.0000
  H   H738      1.0  0.08703  0.55814  0.88025  1.0000
  H   H739      1.0  0.08078  0.56695  0.82872  1.0000
  H   H740      1.0  0.08825  0.58912  0.86904  1.0000
  H   H741      1.0  0.10753  0.54402  0.88355  1.0000
  C   C423      1.0  0.20629  0.36812  0.71213  1.0000
  H   H742      1.0  0.08920  0.54291  0.92889  1.0000
  H   H743      1.0  0.97425  0.50217  0.75434  1.0000
  C   C424      1.0  0.12197  0.33053  0.91016  1.0000
  H   H744      1.0  0.17732  0.36570  0.90755  1.0000
  C   C425      1.0  0.09340  0.57579  0.82778  1.0000
  N   N25       1.0  0.19859  0.39080  0.74188  1.0000
  H   H745      1.0  0.10809  0.54521  0.83125  1.0000
  C   C426      1.0  0.09975  0.55147  0.78668  1.0000
  H   H746      1.0  0.12494  0.58867  0.85631  1.0000
  H   H747      1.0  0.17097  0.40955  0.68929  1.0000
  C   C427      1.0  0.09941  0.53518  0.77184  1.0000
  H   H748      1.0  0.98142  0.51237  0.82649  1.0000
  H   H749      1.0  0.09818  0.53526  0.74514  1.0000
  H   H750      1.0  0.99387  0.46470  0.98603  1.0000
  H   H751      1.0  0.98515  0.45383  0.57386  1.0000
  C   C428      1.0  0.00128  0.48734  0.76642  1.0000
  C   C429      1.0  0.02534  0.56108  0.77680  1.0000
  C   C430      1.0  0.16893  0.34967  0.77910  1.0000
  H   H752      1.0  0.07286  0.59220  0.82222  1.0000
  H   H753      1.0  0.10656  0.60087  0.84824  1.0000
  H   H754      1.0  0.02099  0.32133  0.73788  1.0000
  C   C431      1.0  0.16459  0.33550  0.50754  1.0000
  H   H755      1.0  0.09526  0.31873  0.81087  1.0000
  C   C432      1.0  0.18731  0.39925  0.73513  1.0000
  H   H756      1.0  0.01756  0.48692  0.72713  1.0000
  H   H757      1.0  0.10981  0.35259  0.60675  1.0000
  H   H758      1.0  0.12244  0.58698  0.81390  1.0000
  H   H759      1.0  0.11024  0.56178  0.77681  1.0000
  C   C433      1.0  0.98378  0.50637  0.80393  1.0000
  C   C434      1.0  0.15049  0.58461  0.83273  1.0000
  H   H760      1.0  0.15281  0.59116  0.85659  1.0000
  H   H761      1.0  0.19099  0.42281  0.96242  1.0000
  H   H762      1.0  0.12979  0.34509  0.63270  1.0000
  H   H763      1.0  0.17644  0.34261  0.77262  1.0000
  H   H764      1.0  0.08889  0.55306  0.77866  1.0000
  H   H765      1.0  0.08916  0.52456  0.78164  1.0000
  H   H766      1.0  0.17632  0.39031  0.72388  1.0000
  H   H767      1.0  0.00197  0.48040  0.59765  1.0000
  H   H768      1.0  0.00170  0.46729  0.73478  1.0000
  C   C435      1.0  0.04420  0.52579  0.51977  1.0000
  H   H769      1.0  0.16517  0.37124  0.76439  1.0000
  H   H770      1.0  0.15235  0.59376  0.81324  1.0000
  H   H771      1.0  0.09629  0.57885  0.80179  1.0000
  C   C436      1.0  0.10592  0.31968  0.82447  1.0000
  C   C437      1.0  0.19868  0.42088  0.98099  1.0000
  H   H772      1.0  0.01900  0.56207  0.75480  1.0000
  H   H773      1.0  0.00026  0.48807  0.96333  1.0000
  H   H774      1.0  0.15916  0.57861  0.82894  1.0000
  C   C438      1.0  0.19367  0.41424  0.71196  1.0000
  C   C439      1.0  0.08541  0.60063  0.82595  1.0000
  H   H775      1.0  0.08550  0.61169  0.83989  1.0000
  H   H776      1.0  0.17271  0.36163  0.73287  1.0000
  H   H777      1.0  0.05660  0.57730  0.54267  1.0000
  H   H778      1.0  0.99995  0.50887  0.74356  1.0000
  C   C440      1.0  0.97214  0.50730  0.77796  1.0000
  H   H779      1.0  0.97811  0.40956  0.70356  1.0000
  H   H780      1.0  0.19976  0.34041  0.55722  1.0000
  C   C441      1.0  0.05980  0.52707  0.51443  1.0000
  S   S93       1.0  0.19905  0.40300  0.54323  1.0000
  H   H781      1.0  0.21239  0.39355  0.69740  1.0000
  H   H782      1.0  0.02198  0.47988  0.99272  1.0000
  H   H783      1.0  0.06513  0.56203  0.53626  1.0000
  H   H784      1.0  0.11170  0.32696  0.92716  1.0000
  H   H785      1.0  0.03818  0.56868  0.77347  1.0000
  H   H786      1.0  0.14954  0.34312  0.54069  1.0000
  C   C442      1.0  0.19481  0.32000  0.52345  1.0000
  H   H787      1.0  0.01843  0.51180  0.76043  1.0000
  H   H788      1.0  0.01677  0.50583  0.97713  1.0000
  H   H789      1.0  0.02551  0.49331  0.85296  1.0000
  H   H790      1.0  0.99464  0.49946  0.86211  1.0000
  H   H791      1.0  0.16686  0.31899  0.92375  1.0000
  C   C443      1.0  0.00516  0.53210  0.78801  1.0000
  N   N26       1.0  0.00126  0.51407  0.79524  1.0000
  H   H792      1.0  0.17523  0.42367  0.72377  1.0000
  C   C444      1.0  0.00477  0.48085  0.73364  1.0000
  C   C445      1.0  0.01109  0.51328  0.82378  1.0000
  H   H793      1.0  0.00877  0.48463  0.78443  1.0000
  H   H794      1.0  0.16194  0.32937  0.71201  1.0000
  C   C446      1.0  0.20237  0.38385  0.71032  1.0000
  C   C447      1.0  0.00403  0.49801  0.84615  1.0000
  H   H795      1.0  0.10249  0.56311  0.94328  1.0000
  C   C448      1.0  0.98264  0.46482  0.56744  1.0000
  H   H796      1.0  0.07795  0.51838  0.52809  1.0000
  H   H797      1.0  0.17495  0.39243  0.98057  1.0000
  H   H798      1.0  0.18996  0.38357  0.79070  1.0000
  H   H799      1.0  0.13928  0.33628  0.94830  1.0000
  H   H800      1.0  0.19887  0.41111  0.68945  1.0000
  C   C449      1.0  0.11781  0.32074  0.87750  1.0000
  C   C450      1.0  0.10403  0.64030  0.92360  1.0000
  S   S94       1.0  0.19805  0.37047  0.98224  1.0000
  C   C451      1.0  0.97015  0.41077  0.61946  1.0000
  H   H801      1.0  0.16375  0.41192  0.97414  1.0000
  C   C452      1.0  0.07923  0.31360  0.74399  1.0000
  H   H802      1.0  0.21002  0.40977  0.77773  1.0000
  C   C453      1.0  0.96423  0.43327  0.52776  1.0000
  H   H803      1.0  0.15981  0.32253  0.51594  1.0000
  H   H804      1.0  0.08060  0.31350  0.91344  1.0000
  C   C454      1.0  0.15506  0.31648  0.66557  1.0000
  C   C455      1.0  0.96485  0.43956  0.63327  1.0000
  C   C456      1.0  0.02753  0.32303  0.76093  1.0000
  H   H805      1.0  0.12611  0.41642  0.99668  1.0000
  H   H806      1.0  0.14687  0.38088  0.99442  1.0000
  H   H807      1.0  0.20284  0.42504  0.72405  1.0000
  H   H808      1.0  0.97188  0.48592  0.69735  1.0000
  H   H809      1.0  0.99969  0.52186  0.98338  1.0000
  C   C457      1.0  0.13815  0.41846  0.98697  1.0000
  H   H810      1.0  0.20277  0.36203  0.66059  1.0000
  H   H811      1.0  0.17055  0.43013  0.99829  1.0000
  C   C458      1.0  0.21195  0.36399  0.67918  1.0000
  C   C459      1.0  0.96271  0.53395  0.84845  1.0000
  H   H812      1.0  0.96272  0.45068  0.63872  1.0000
  S   S95       1.0  0.03607  0.53816  0.49916  1.0000
  Fe  Fe42      1.0  0.15101  0.91707  0.35495  1.0000
  S   S96       1.0  0.16123  0.90143  0.38133  1.0000
  S   S97       1.0  0.15478  0.94373  0.37082  1.0000
  Fe  Fe43      1.0  0.13039  0.88697  0.31289  1.0000
  S   S98       1.0  0.13924  0.86937  0.33698  1.0000
  S   S99       1.0  0.11103  0.88025  0.27473  1.0000
  Fe  Fe44      1.0  0.13661  0.88178  0.38396  1.0000
  S   S100      1.0  0.13047  0.86721  0.43107  1.0000
  Fe  Fe45      1.0  0.16311  0.89026  0.33283  1.0000
  S   S101      1.0  0.18570  0.88565  0.32587  1.0000
  S   S102      1.0  0.12601  0.89794  0.36043  1.0000
  S   S103      1.0  0.15463  0.90731  0.30557  1.0000
  Fe  Fe46      1.0  0.05791  0.81782  0.06580  1.0000
  S   S104      1.0  0.07728  0.81045  0.08325  1.0000
  C   C460      1.0  0.10054  0.69181  0.05994  1.0000
  Fe  Fe47      1.0  0.03263  0.79457  0.11238  1.0000
  S   S105      1.0  0.05067  0.78592  0.13349  1.0000
  S   S106      1.0  0.00724  0.78554  0.13486  1.0000
  Fe  Fe48      1.0  0.06811  0.81241  0.13356  1.0000
  S   S107      1.0  0.08802  0.82084  0.17078  1.0000
  Fe  Fe49      1.0  0.05889  0.78468  0.08215  1.0000
  S   S108      1.0  0.06448  0.76228  0.06812  1.0000
  S   S109      1.0  0.04965  0.82150  0.11638  1.0000
  S   S110      1.0  0.03981  0.79159  0.06071  1.0000
  Fe  Fe50      1.0  0.12196  0.71525  0.45898  1.0000
  S   S111      1.0  0.12108  0.73606  0.42846  1.0000
  S   S112      1.0  0.10051  0.69031  0.46256  1.0000
  H   H813      1.0  0.12800  0.92214  0.41893  1.0000
  S   S113      1.0  0.15593  0.75949  0.45754  1.0000
  H   H814      1.0  0.09391  0.70794  0.02892  1.0000
  Fe  Fe51      1.0  0.13033  0.75269  0.47182  1.0000
  H   H815      1.0  0.18562  0.81597  0.49367  1.0000
  Fe  Fe52      1.0  0.14676  0.74147  0.41619  1.0000
  S   S114      1.0  0.15341  0.74578  0.36243  1.0000
  C   C461      1.0  0.12029  0.82405  0.06208  1.0000
  S   S115      1.0  0.14718  0.71977  0.44444  1.0000
  H   H816      1.0  0.20904  0.79067  0.41112  1.0000
  H   H817      1.0  0.09124  0.84439  0.34737  1.0000
  C   C462      1.0  0.20213  0.84082  0.33429  1.0000
  S   S116      1.0  0.19349  0.81041  0.20716  1.0000
  C   C463      1.0  0.16921  0.76183  0.34273  1.0000
  C   C464      1.0  0.18182  0.77332  0.35989  1.0000
  C   C465      1.0  0.19435  0.78555  0.34315  1.0000
  C   C466      1.0  0.19435  0.78660  0.30920  1.0000
  C   C467      1.0  0.18156  0.77537  0.29207  1.0000
  C   C468      1.0  0.16912  0.76299  0.30878  1.0000
  H   H818      1.0  0.18195  0.77262  0.38593  1.0000
  H   H819      1.0  0.96453  0.73995  0.07776  1.0000
  H   H820      1.0  0.18140  0.77602  0.26595  1.0000
  H   H821      1.0  0.15941  0.75414  0.29529  1.0000
  C   C469      1.0  0.17494  0.75096  0.04464  1.0000
  C   C470      1.0  0.18673  0.75244  0.06726  1.0000
  S   S117      1.0  0.19889  0.85553  0.19323  1.0000
  C   C471      1.0  0.18307  0.77594  0.09345  1.0000
  C   C472      1.0  0.17145  0.77453  0.07057  1.0000
  C   C473      1.0  0.16723  0.76200  0.04658  1.0000
  H   H822      1.0  0.19277  0.74394  0.06591  1.0000
  Fe  Fe53      1.0  0.20974  0.83646  0.19718  1.0000
  H   H823      1.0  0.15818  0.76104  0.02927  1.0000
  C   C474      1.0  0.10799  0.66365  0.43958  1.0000
  C   C475      1.0  0.09635  0.66907  0.45179  1.0000
  H   H824      1.0  0.11993  0.67254  0.43553  1.0000
  C   C476      1.0  0.98734  0.77080  0.12876  1.0000
  C   C477      1.0  0.98290  0.76067  0.10103  1.0000
  C   C478      1.0  0.97577  0.76870  0.15335  1.0000
  H   H825      1.0  0.99142  0.76239  0.08150  1.0000
  H   H826      1.0  0.97893  0.77648  0.17488  1.0000
  C   C479      1.0  0.08009  0.76436  0.04023  1.0000
  C   C480      1.0  0.08399  0.75059  0.03306  1.0000
  C   C481      1.0  0.13625  0.96919  0.45949  1.0000
  H   H827      1.0  0.10235  0.92458  0.44514  1.0000
  Fe  Fe54      1.0  0.20512  0.80357  0.16354  1.0000
  H   H828      1.0  0.10387  0.69198  0.08565  1.0000
  H   H829      1.0  0.07749  0.73893  0.04476  1.0000
  C   C482      1.0  0.08081  0.65720  0.45632  1.0000
  C   C483      1.0  0.19047  0.80018  0.45678  1.0000
  H   H830      1.0  0.14530  0.90175  0.44157  1.0000
  C   C484      1.0  0.19538  0.86411  0.22993  1.0000
  C   C485      1.0  0.18261  0.86925  0.23268  1.0000
  C   C486      1.0  0.17939  0.87576  0.26216  1.0000
  C   C487      1.0  0.18939  0.87783  0.28843  1.0000
  C   C488      1.0  0.07904  0.84586  0.00218  1.0000
  H   H831      1.0  0.20413  0.83875  0.30818  1.0000
  H   H832      1.0  0.17500  0.86788  0.21222  1.0000
  H   H833      1.0  0.16931  0.87934  0.26446  1.0000
  H   H834      1.0  0.16415  0.79657  0.33765  1.0000
  C   C489      1.0  0.10438  0.86318  0.24703  1.0000
  C   C490      1.0  0.09185  0.86154  0.22616  1.0000
  C   C491      1.0  0.08639  0.84844  0.20324  1.0000
  C   C492      1.0  0.09351  0.83687  0.20077  1.0000
  C   C493      1.0  0.10606  0.83850  0.22158  1.0000
  C   C494      1.0  0.11140  0.85150  0.24474  1.0000
  H   H835      1.0  0.08634  0.87050  0.22775  1.0000
  H   H836      1.0  0.07680  0.84740  0.18733  1.0000
  H   H837      1.0  0.11172  0.82969  0.21973  1.0000
  H   H838      1.0  0.12108  0.85264  0.26050  1.0000
  C   C495      1.0  0.11404  0.86299  0.45814  1.0000
  C   C496      1.0  0.21036  0.79402  0.01623  1.0000
  H   H839      1.0  0.00650  0.76780  0.49211  1.0000
  S   S118      1.0  0.18732  0.79193  0.12312  1.0000
  C   C497      1.0  0.08823  0.86328  0.47329  1.0000
  C   C498      1.0  0.10114  0.86717  0.45122  1.0000
  H   H840      1.0  0.18956  0.76861  0.43902  1.0000
  C   C499      1.0  0.13017  0.93978  0.47770  1.0000
  H   H841      1.0  0.08562  0.79005  0.03011  1.0000
  H   H842      1.0  0.10103  0.87327  0.42880  1.0000
  H   H843      1.0  0.05005  0.80676  0.47321  1.0000
  C   C500      1.0  0.17256  0.96186  0.37461  1.0000
  C   C501      1.0  0.18758  0.96185  0.36702  1.0000
  H   H844      1.0  0.09668  0.90305  0.45582  1.0000
  H   H845      1.0  0.18865  0.95052  0.35861  1.0000
  N   N27       1.0  0.01692  0.73456  0.12757  1.0000
  C   C502      1.0  0.01229  0.74327  0.10088  1.0000
  C   C503      1.0  0.01507  0.74231  0.15968  1.0000
  C   C504      1.0  0.03432  0.73781  0.12274  1.0000
  C   C505      1.0  0.00757  0.71604  0.12734  1.0000
  C   C506      1.0  0.99015  0.70976  0.11551  1.0000
  C   C507      1.0  0.01639  0.73917  0.06589  1.0000
  C   C508      1.0  0.04222  0.73165  0.14970  1.0000
  C   C509      1.0  0.99797  0.73987  0.17038  1.0000
  C   C510      1.0  0.19909  0.76846  0.45497  1.0000
  H   H846      1.0  0.17148  0.80934  0.46129  1.0000
  H   H847      1.0  0.99157  0.74321  0.15117  1.0000
  C   C511      1.0  0.05835  0.73185  0.13836  1.0000
  H   H848      1.0  0.01817  0.75699  0.10416  1.0000
  C   C512      1.0  0.17152  0.97678  0.38565  1.0000
  H   H849      1.0  0.01957  0.73719  0.17980  1.0000
  H   H850      1.0  0.02240  0.75588  0.15952  1.0000
  H   H851      1.0  0.04132  0.75131  0.12009  1.0000
  H   H852      1.0  0.03627  0.73197  0.09968  1.0000
  H   H853      1.0  0.01354  0.70962  0.11150  1.0000
  H   H854      1.0  0.00742  0.71105  0.15200  1.0000
  H   H855      1.0  0.02926  0.74595  0.06081  1.0000
  H   H856      1.0  0.12514  0.89130  0.00403  1.0000
  H   H857      1.0  0.20983  0.80672  0.49034  1.0000
  H   H858      1.0  0.14918  0.67568  0.10988  1.0000
  H   H859      1.0  0.03471  0.71885  0.15700  1.0000
  H   H860      1.0  0.04435  0.73997  0.17133  1.0000
  H   H861      1.0  0.15021  0.95520  0.44640  1.0000
  H   H862      1.0  0.99124  0.72676  0.17709  1.0000
  H   H863      1.0  0.12572  0.75783  0.05641  1.0000
  C   C513      1.0  0.14720  0.92456  0.46713  1.0000
  H   H864      1.0  0.13345  0.68698  0.07736  1.0000
  H   H865      1.0  0.13113  0.94830  0.42735  1.0000
  H   H866      1.0  0.98990  0.71151  0.08902  1.0000
  H   H867      1.0  0.00427  0.76392  0.19462  1.0000
  S   S119      1.0  0.17047  0.73562  0.01359  1.0000
  C   C514      1.0  0.10414  0.64666  0.43232  1.0000
  H   H868      1.0  0.17312  0.91727  0.48815  1.0000
  H   H869      1.0  0.05694  0.72308  0.11768  1.0000
  H   H870      1.0  0.11373  0.86575  0.03601  1.0000
  H   H871      1.0  0.06409  0.72814  0.15849  1.0000
  H   H872      1.0  0.13055  0.66428  0.13057  1.0000
  H   H873      1.0  0.98558  0.74848  0.20738  1.0000
  H   H874      1.0  0.16581  0.78333  0.07123  1.0000
  C   C515      1.0  0.19075  0.76484  0.09172  1.0000
  C   C516      1.0  0.12153  0.91504  0.44041  1.0000
  C   C517      1.0  0.14761  0.78590  0.39273  1.0000
  H   H875      1.0  0.08769  0.75925  0.40361  1.0000
  H   H876      1.0  0.13640  0.78141  0.37897  1.0000
  H   H877      1.0  0.10783  0.76081  0.39765  1.0000
  H   H878      1.0  0.18221  0.96393  0.29969  1.0000
  H   H879      1.0  0.12464  0.70181  0.04229  1.0000
  H   H880      1.0  0.07961  0.82250  0.34370  1.0000
  C   C518      1.0  0.09719  0.90759  0.40517  1.0000
  H   H881      1.0  0.08470  0.90661  0.40483  1.0000
  H   H882      1.0  0.13846  0.66043  0.05882  1.0000
  H   H883      1.0  0.15419  0.77787  0.38672  1.0000
  C   C519      1.0  0.17530  0.96525  0.27889  1.0000
  C   C520      1.0  0.10164  0.66038  0.03383  1.0000
  H   H884      1.0  0.20966  0.76059  0.41304  1.0000
  H   H885      1.0  0.06622  0.74447  0.13058  1.0000
  C   C521      1.0  0.16042  0.80647  0.34789  1.0000
  N   N28       1.0  0.11713  0.67507  0.03876  1.0000
  H   H886      1.0  0.19097  0.81464  0.34125  1.0000
  C   C522      1.0  0.20257  0.87339  0.28514  1.0000
  Fe  Fe55      1.0  0.15416  0.73768  0.48722  1.0000
  H   H887      1.0  0.19276  0.76259  0.47757  1.0000
  H   H888      1.0  0.16268  0.96154  0.28659  1.0000
  H   H889      1.0  0.13600  0.90252  0.03867  1.0000
  H   H890      1.0  0.12590  0.84887  0.04688  1.0000
  H   H891      1.0  0.12157  0.90244  0.43640  1.0000
  C   C523      1.0  0.08857  0.77939  0.02493  1.0000
  H   H892      1.0  0.14593  0.82605  0.48813  1.0000
  H   H893      1.0  0.13268  0.82638  0.06883  1.0000
  H   H894      1.0  0.11778  0.82074  0.48427  1.0000
  H   H895      1.0  0.01044  0.75806  0.04243  1.0000
  C   C524      1.0  0.12874  0.67562  0.01171  1.0000
  H   H896      1.0  0.18333  0.79000  0.44038  1.0000
  H   H897      1.0  0.19976  0.76582  0.10914  1.0000
  H   H898      1.0  0.01366  0.72574  0.06252  1.0000
  C   C525      1.0  0.15777  0.80391  0.38488  1.0000
  H   H899      1.0  0.18805  0.80621  0.00545  1.0000
  C   C526      1.0  0.00739  0.74449  0.04062  1.0000
  H   H900      1.0  0.09731  0.89528  0.39847  1.0000
  H   H901      1.0  0.16907  0.80718  0.39788  1.0000
  H   H902      1.0  0.98327  0.71637  0.12738  1.0000
  H   H903      1.0  0.14335  0.84122  0.46243  1.0000
  C   C527      1.0  0.19300  0.73904  0.43555  1.0000
  H   H904      1.0  0.16745  0.86054  0.41913  1.0000
  H   H905      1.0  0.15124  0.81146  0.39450  1.0000
  H   H906      1.0  0.09474  0.65722  0.05703  1.0000
  H   H907      1.0  0.20407  0.79438  0.35647  1.0000
  N   N29       1.0  0.17193  0.82328  0.33703  1.0000
  H   H908      1.0  0.19948  0.85211  0.33685  1.0000
  H   H909      1.0  0.11047  0.69222  0.01179  1.0000
  H   H910      1.0  0.15258  0.93145  0.44466  1.0000
  C   C528      1.0  0.18830  0.82565  0.34822  1.0000
  C   C529      1.0  0.20128  0.97655  0.37024  1.0000
  C   C530      1.0  0.20533  0.86613  0.25624  1.0000
  H   H911      1.0  0.11986  0.64888  0.07949  1.0000
  H   H912      1.0  0.14456  0.89970  0.48473  1.0000
  H   H913      1.0  0.08828  0.70830  0.07094  1.0000
  H   H914      1.0  0.16968  0.89996  0.46065  1.0000
  C   C531      1.0  0.09775  0.70770  0.05421  1.0000
  H   H915      1.0  0.14781  0.82430  0.44488  1.0000
  C   C532      1.0  0.09616  0.75176  0.01050  1.0000
  C   C533      1.0  0.11379  0.69067  0.03689  1.0000
  H   H916      1.0  0.13128  0.68869  0.48889  1.0000
  H   H917      1.0  0.17103  0.79494  0.49209  1.0000
  H   H918      1.0  0.10077  0.83059  0.33499  1.0000
  H   H919      1.0  0.11457  0.67343  0.09092  1.0000
  H   H920      1.0  0.14463  0.78474  0.41906  1.0000
  H   H921      1.0  0.18865  0.73404  0.46000  1.0000
  C   C534      1.0  0.17235  0.82311  0.30035  1.0000
  C   C535      1.0  0.16667  0.83691  0.34880  1.0000
  C   C536      1.0  0.20155  0.79511  0.47853  1.0000
  C   C537      1.0  0.15613  0.81845  0.28350  1.0000
  H   H922      1.0  0.02724  0.78026  0.49774  1.0000
  C   C538      1.0  0.15830  0.82247  0.24745  1.0000
  H   H923      1.0  0.14838  0.80379  0.33840  1.0000
  H   H924      1.0  0.17778  0.81439  0.29090  1.0000
  H   H925      1.0  0.18007  0.83555  0.29117  1.0000
  H   H926      1.0  0.17072  0.84747  0.33165  1.0000
  H   H927      1.0  0.15348  0.83237  0.34876  1.0000
  H   H928      1.0  0.14916  0.82522  0.29462  1.0000
  H   H929      1.0  0.14913  0.80492  0.28527  1.0000
  H   H930      1.0  0.10046  0.76209  0.43797  1.0000
  N   N30       1.0  0.13009  0.92267  0.47118  1.0000
  C   C539      1.0  0.13083  0.89011  0.02683  1.0000
  H   H931      1.0  0.16441  0.83601  0.24406  1.0000
  H   H932      1.0  0.16541  0.81611  0.23535  1.0000
  H   H933      1.0  0.14654  0.81833  0.23580  1.0000
  H   H934      1.0  0.15077  0.75727  0.20353  1.0000
  H   H935      1.0  0.18907  0.82644  0.37497  1.0000
  H   H936      1.0  0.00382  0.74738  0.22082  1.0000
  C   C540      1.0  0.14125  0.82789  0.46456  1.0000
  H   H937      1.0  0.15026  0.84729  0.39721  1.0000
  H   H938      1.0  0.99946  0.74070  0.10212  1.0000
  N   N31       1.0  0.11575  0.86270  0.10426  1.0000
  C   C541      1.0  0.09813  0.85790  0.10024  1.0000
  C   C542      1.0  0.11964  0.84753  0.09865  1.0000
  C   C543      1.0  0.11953  0.86822  0.13915  1.0000
  C   C544      1.0  0.12565  0.87665  0.08227  1.0000
  C   C545      1.0  0.11848  0.87778  0.04899  1.0000
  C   C546      1.0  0.09178  0.87142  0.11079  1.0000
  C   C547      1.0  0.13672  0.87173  0.14995  1.0000
  C   C548      1.0  0.11732  0.84011  0.06391  1.0000
  H   H939      1.0  0.06736  0.79267  0.45639  1.0000
  C   C549      1.0  0.07615  0.86891  0.09450  1.0000
  C   C550      1.0  0.14054  0.88158  0.18184  1.0000
  H   H940      1.0  0.09136  0.84671  0.11480  1.0000
  H   H941      1.0  0.09448  0.85401  0.07493  1.0000
  H   H942      1.0  0.13228  0.85033  0.10382  1.0000
  H   H943      1.0  0.11254  0.83760  0.11578  1.0000
  H   H944      1.0  0.11142  0.85875  0.15578  1.0000
  H   H945      1.0  0.11732  0.87969  0.14437  1.0000
  H   H946      1.0  0.12831  0.88891  0.09440  1.0000
  H   H947      1.0  0.13748  0.87604  0.07758  1.0000
  H   H948      1.0  0.07165  0.87833  0.10372  1.0000
  C   C551      1.0  0.20578  0.75652  0.43817  1.0000
  H   H949      1.0  0.08967  0.87093  0.13746  1.0000
  H   H950      1.0  0.10040  0.88404  0.10500  1.0000
  H   H951      1.0  0.14560  0.87882  0.13147  1.0000
  H   H952      1.0  0.13811  0.85985  0.15412  1.0000
  H   H953      1.0  0.10514  0.83725  0.05559  1.0000
  C   C552      1.0  0.16789  0.91174  0.46456  1.0000
  H   H954      1.0  0.14044  0.88570  0.02041  1.0000
  H   H955      1.0  0.17600  0.95667  0.25922  1.0000
  H   H956      1.0  0.14041  0.77825  0.04905  1.0000
  H   H957      1.0  0.15158  0.68443  0.45404  1.0000
  H   H958      1.0  0.07790  0.87023  0.06782  1.0000
  H   H959      1.0  0.06710  0.85644  0.09980  1.0000
  H   H960      1.0  0.13190  0.87496  0.20111  1.0000
  H   H961      1.0  0.15260  0.88318  0.18975  1.0000
  H   H962      1.0  0.14021  0.89404  0.17888  1.0000
  N   N32       1.0  0.13747  0.79642  0.14449  1.0000
  C   C553      1.0  0.12061  0.78863  0.15721  1.0000
  C   C554      1.0  0.14850  0.79163  0.16510  1.0000
  C   C555      1.0  0.14241  0.81500  0.14744  1.0000
  C   C556      1.0  0.13892  0.79217  0.10922  1.0000
  C   C557      1.0  0.13227  0.77354  0.09961  1.0000
  C   C558      1.0  0.10793  0.79202  0.13746  1.0000
  C   C559      1.0  0.16020  0.82557  0.14002  1.0000
  C   C560      1.0  0.14229  0.77370  0.17812  1.0000
  C   C561      1.0  0.15559  0.77000  0.19370  1.0000
  C   C562      1.0  0.17900  0.80544  0.47729  1.0000
  C   C563      1.0  0.09127  0.78226  0.15077  1.0000
  C   C564      1.0  0.16357  0.84405  0.14291  1.0000
  H   H963      1.0  0.11991  0.79284  0.18269  1.0000
  H   H964      1.0  0.11658  0.77500  0.15865  1.0000
  H   H965      1.0  0.15984  0.79389  0.15172  1.0000
  H   H966      1.0  0.15189  0.79971  0.18715  1.0000
  H   H967      1.0  0.13978  0.81850  0.17241  1.0000
  H   H968      1.0  0.13542  0.81937  0.13092  1.0000
  H   H969      1.0  0.13332  0.79861  0.09371  1.0000
  H   H970      1.0  0.15158  0.79708  0.10128  1.0000
  H   H971      1.0  0.12078  0.76640  0.11160  1.0000
  H   H972      1.0  0.14095  0.76804  0.10589  1.0000
  H   H973      1.0  0.10983  0.80533  0.13863  1.0000
  H   H974      1.0  0.10810  0.78822  0.11169  1.0000
  H   H975      1.0  0.16364  0.82316  0.11509  1.0000
  H   H976      1.0  0.16808  0.82294  0.15726  1.0000
  H   H977      1.0  0.13302  0.77214  0.19713  1.0000
  H   H978      1.0  0.13711  0.76433  0.15884  1.0000
  H   H979      1.0  0.16092  0.77886  0.21392  1.0000
  H   H980      1.0  0.07165  0.66116  0.46561  1.0000
  H   H981      1.0  0.16500  0.77082  0.17549  1.0000
  C   C565      1.0  0.12948  0.77115  0.06312  1.0000
  H   H982      1.0  0.12216  0.80420  0.46559  1.0000
  H   H983      1.0  0.06756  0.81449  0.49780  1.0000
  H   H984      1.0  0.08248  0.78463  0.13568  1.0000
  H   H985      1.0  0.08862  0.76877  0.14991  1.0000
  H   H986      1.0  0.09001  0.78619  0.17611  1.0000
  H   H987      1.0  0.16074  0.84727  0.16782  1.0000
  H   H988      1.0  0.17636  0.85130  0.13790  1.0000
  H   H989      1.0  0.15657  0.84762  0.12510  1.0000
  N   N33       1.0  0.09894  0.80946  0.42634  1.0000
  C   C566      1.0  0.09533  0.79124  0.42997  1.0000
  C   C567      1.0  0.08951  0.81459  0.45169  1.0000
  C   C568      1.0  0.09461  0.81241  0.39259  1.0000
  C   C569      1.0  0.11635  0.81970  0.43095  1.0000
  C   C570      1.0  0.12353  0.81722  0.46309  1.0000
  C   C571      1.0  0.10573  0.78424  0.40910  1.0000
  C   C572      1.0  0.09451  0.82986  0.38648  1.0000
  C   C573      1.0  0.07122  0.80587  0.44953  1.0000
  H   H990      1.0  0.07835  0.86667  0.46787  1.0000
  C   C574      1.0  0.96755  0.74801  0.09890  1.0000
  C   C575      1.0  0.10003  0.76546  0.41234  1.0000
  C   C576      1.0  0.09132  0.83186  0.35094  1.0000
  H   H991      1.0  0.08278  0.78383  0.42353  1.0000
  H   H992      1.0  0.09624  0.78825  0.45577  1.0000
  H   H993      1.0  0.09246  0.81195  0.47642  1.0000
  H   H994      1.0  0.09280  0.82821  0.45144  1.0000
  H   H995      1.0  0.08280  0.80303  0.38578  1.0000
  H   H996      1.0  0.10305  0.81066  0.37446  1.0000
  H   H997      1.0  0.12356  0.81762  0.41053  1.0000
  H   H998      1.0  0.11854  0.83304  0.43027  1.0000
  H   H999      1.0  0.12364  0.96763  0.46270  1.0000
  H   H1000     1.0  0.98064  0.68892  0.14837  1.0000
  H   H1001     1.0  0.10534  0.78688  0.38308  1.0000
  H   H1002     1.0  0.11824  0.78970  0.41691  1.0000
  H   H1003     1.0  0.10606  0.83980  0.39244  1.0000
  H   H1004     1.0  0.08513  0.83196  0.40126  1.0000
  H   H1005     1.0  0.06690  0.80642  0.42489  1.0000
  H   H1006     1.0  0.11995  0.77534  0.05628  1.0000
  C   C577      1.0  0.12376  0.67483  0.07181  1.0000
  H   H1007     1.0  0.10856  0.88205  0.05232  1.0000
  H   H1008     1.0  0.18513  0.85321  0.38133  1.0000
  H   H1009     1.0  0.16478  0.86537  0.37817  1.0000
  S   S120      1.0  0.06216  0.83793  0.02825  1.0000
  C   C578      1.0  0.17244  0.84479  0.38270  1.0000
  C   C579      1.0  0.16312  0.85507  0.39494  1.0000
  H   H1010     1.0  0.17135  0.83552  0.40129  1.0000
  S   S121      1.0  0.21057  0.80228  0.28972  1.0000
  C   C580      1.0  0.13744  0.95265  0.45050  1.0000
  H   H1011     1.0  0.16001  0.97697  0.39175  1.0000
  H   H1012     1.0  0.10413  0.91682  0.38687  1.0000
  H   H1013     1.0  0.10874  0.71879  0.05868  1.0000
  C   C581      1.0  0.06306  0.81399  0.47286  1.0000
  H   H1014     1.0  0.96913  0.68711  0.11260  1.0000
  H   H1015     1.0  0.11194  0.81463  0.07839  1.0000
  H   H1016     1.0  0.11838  0.81897  0.03692  1.0000
  C   C582      1.0  0.10392  0.91291  0.43898  1.0000
  C   C583      1.0  0.99799  0.75057  0.20017  1.0000
  H   H1017     1.0  0.08909  0.68126  0.05603  1.0000
  H   H1018     1.0  0.18284  0.73908  0.42124  1.0000
  H   H1019     1.0  0.15436  0.93201  0.48767  1.0000
  H   H1020     1.0  0.06527  0.82678  0.46512  1.0000
  H   H1021     1.0  0.09399  0.66362  0.01671  1.0000
  H   H1022     1.0  0.97211  0.80149  0.05028  1.0000
  C   C584      1.0  0.15015  0.90824  0.46453  1.0000
  H   H1023     1.0  0.11805  0.93937  0.48247  1.0000
  H   H1024     1.0  0.08768  0.82667  0.01081  1.0000
  H   H1025     1.0  0.09899  0.74105  0.00496  1.0000
  C   C585      1.0  0.11380  0.85473  0.48712  1.0000
  C   C586      1.0  0.13858  0.66387  0.11020  1.0000
  H   H1026     1.0  0.17419  0.92034  0.44479  1.0000
  H   H1027     1.0  0.14276  0.97437  0.48217  1.0000
  H   H1028     1.0  0.20028  0.78677  0.03246  1.0000
  H   H1029     1.0  0.15059  0.69224  0.03619  1.0000
  H   H1030     1.0  0.14258  0.65360  0.11445  1.0000
  H   H1031     1.0  0.99438  0.73784  0.04402  1.0000
  H   H1032     1.0  0.19799  0.73069  0.42311  1.0000
  C   C587      1.0  0.98139  0.69130  0.12194  1.0000
  H   H1033     1.0  0.19403  0.78757  0.49853  1.0000
  H   H1034     1.0  0.98753  0.68399  0.10949  1.0000
  S   S122      1.0  0.12580  0.77535  0.48845  1.0000
  H   H1035     1.0  0.15960  0.67782  0.48807  1.0000
  C   C588      1.0  0.12996  0.66101  0.07792  1.0000
  H   H1036     1.0  0.19757  0.81083  0.44142  1.0000
  H   H1037     1.0  0.12376  0.85154  0.49286  1.0000
  N   N34       1.0  0.21071  0.78588  0.46183  1.0000
  H   H1038     1.0  0.01079  0.74156  0.01596  1.0000
  H   H1039     1.0  0.11855  0.89821  0.49180  1.0000
  H   H1040     1.0  0.21153  0.80713  0.01874  1.0000
  H   H1041     1.0  0.21063  0.87552  0.30508  1.0000
  H   H1042     1.0  0.13139  0.66428  0.01088  1.0000
  H   H1043     1.0  0.13975  0.66552  0.47417  1.0000
  H   H1044     1.0  0.14323  0.70213  0.00635  1.0000
  H   H1045     1.0  0.14163  0.97818  0.43978  1.0000
  C   C589      1.0  0.14489  0.69059  0.01226  1.0000
  C   C590      1.0  0.14862  0.67832  0.47797  1.0000
  H   H1046     1.0  0.09541  0.74772  0.49783  1.0000
  H   H1047     1.0  0.96795  0.81833  0.03412  1.0000
  H   H1048     1.0  0.96595  0.80066  0.00864  1.0000
  C   C591      1.0  0.10071  0.78055  0.00233  1.0000
  H   H1049     1.0  0.20407  0.76419  0.00111  1.0000
  C   C592      1.0  0.96429  0.80466  0.03371  1.0000
  Fe  Fe56      1.0  0.15584  0.91265  0.85338  1.0000
  S   S123      1.0  0.15863  0.89310  0.88451  1.0000
  S   S124      1.0  0.17694  0.93823  0.85070  1.0000
  Fe  Fe57      1.0  0.12613  0.88647  0.82195  1.0000
  S   S125      1.0  0.12717  0.86550  0.85059  1.0000
  S   S126      1.0  0.10669  0.88267  0.78519  1.0000
  Fe  Fe58      1.0  0.13221  0.88284  0.89339  1.0000
  S   S127      1.0  0.12500  0.86996  0.94225  1.0000
  Fe  Fe59      1.0  0.15326  0.87659  0.84053  1.0000
  S   S128      1.0  0.16536  0.85839  0.83641  1.0000
  S   S129      1.0  0.12953  0.90371  0.86561  1.0000
  S   S130      1.0  0.15205  0.89638  0.80826  1.0000
  Fe  Fe60      1.0  0.06382  0.83017  0.56775  1.0000
  S   S131      1.0  0.07943  0.81892  0.59041  1.0000
  C   C593      1.0  0.02515  0.71667  0.55250  1.0000
  Fe  Fe61      1.0  0.03294  0.80558  0.60147  1.0000
  S   S132      1.0  0.04682  0.79298  0.62634  1.0000
  S   S133      1.0  0.00566  0.79608  0.59546  1.0000
  Fe  Fe62      1.0  0.06539  0.81859  0.63642  1.0000
  S   S134      1.0  0.07853  0.82211  0.68462  1.0000
  Fe  Fe63      1.0  0.05988  0.79445  0.57906  1.0000
  S   S135      1.0  0.06144  0.77113  0.55705  1.0000
  S   S136      1.0  0.05065  0.83138  0.61440  1.0000
  S   S137      1.0  0.04519  0.80567  0.55350  1.0000
  Fe  Fe64      1.0  0.12137  0.71008  0.94497  1.0000
  S   S138      1.0  0.12030  0.73026  0.91290  1.0000
  C   C594      1.0  0.12528  0.67718  0.58806  1.0000
  C   C595      1.0  0.19968  0.84433  0.62042  1.0000
  S   S139      1.0  0.15357  0.75544  0.94530  1.0000
  S   S140      1.0  0.17260  0.73831  0.52421  1.0000
  H   H1050     1.0  0.19650  0.87246  0.86898  1.0000
  H   H1051     1.0  0.20075  0.73737  0.97165  1.0000
  Fe  Fe65      1.0  0.14653  0.73731  0.90379  1.0000
  S   S141      1.0  0.15462  0.74450  0.85149  1.0000
  H   H1052     1.0  0.19354  0.81175  0.96370  1.0000
  S   S142      1.0  0.14719  0.71598  0.93298  1.0000
  C   C596      1.0  0.15644  0.68835  0.98702  1.0000
  C   C597      1.0  0.08518  0.68416  0.54389  1.0000
  H   H1053     1.0  0.13594  0.82886  0.95330  1.0000
  H   H1054     1.0  0.19440  0.84860  0.60030  1.0000
  C   C598      1.0  0.17291  0.75855  0.83521  1.0000
  C   C599      1.0  0.18673  0.76482  0.85348  1.0000
  C   C600      1.0  0.20113  0.77541  0.83908  1.0000
  C   C601      1.0  0.20180  0.78020  0.80655  1.0000
  C   C602      1.0  0.18789  0.77420  0.78851  1.0000
  C   C603      1.0  0.17359  0.76328  0.80266  1.0000
  H   H1055     1.0  0.18637  0.76112  0.87835  1.0000
  H   H1056     1.0  0.10962  0.67483  0.52387  1.0000
  H   H1057     1.0  0.18826  0.77766  0.76343  1.0000
  H   H1058     1.0  0.16299  0.75843  0.78825  1.0000
  C   C604      1.0  0.18036  0.75482  0.55291  1.0000
  C   C605      1.0  0.19064  0.75389  0.57701  1.0000
  C   C606      1.0  0.14834  0.80779  0.61059  1.0000
  C   C607      1.0  0.19468  0.78165  0.59687  1.0000
  C   C608      1.0  0.18418  0.78243  0.57308  1.0000
  C   C609      1.0  0.17693  0.76905  0.55148  1.0000
  C   C610      1.0  0.10145  0.90007  0.54309  1.0000
  H   H1059     1.0  0.12834  0.67412  0.65488  1.0000
  H   H1060     1.0  0.16892  0.76990  0.53333  1.0000
  C   C611      1.0  0.10943  0.91420  0.51945  1.0000
  C   C612      1.0  0.09623  0.66320  0.93973  1.0000
  H   H1061     1.0  0.11981  0.66626  0.92406  1.0000
  C   C613      1.0  0.98746  0.78205  0.61308  1.0000
  C   C614      1.0  0.97347  0.77702  0.59480  1.0000
  C   C615      1.0  0.98646  0.77578  0.64436  1.0000
  H   H1062     1.0  0.97403  0.78175  0.57061  1.0000
  H   H1063     1.0  0.99702  0.77951  0.65886  1.0000
  C   C616      1.0  0.07953  0.77227  0.53894  1.0000
  C   C617      1.0  0.08054  0.75805  0.52429  1.0000
  H   H1064     1.0  0.99632  0.76344  0.56164  1.0000
  H   H1065     1.0  0.11787  0.66399  0.58216  1.0000
  H   H1066     1.0  0.19018  0.92956  0.73776  1.0000
  C   C618      1.0  0.09288  0.78710  0.53884  1.0000
  H   H1067     1.0  0.10712  0.79217  0.99043  1.0000
  H   H1068     1.0  0.19925  0.81027  0.82895  1.0000
  H   H1069     1.0  0.21069  0.93384  0.86170  1.0000
  H   H1070     1.0  0.09227  0.79808  0.55019  1.0000
  C   C619      1.0  0.19466  0.85505  0.74742  1.0000
  C   C620      1.0  0.18501  0.86422  0.74613  1.0000
  C   C621      1.0  0.17561  0.86501  0.77303  1.0000
  C   C622      1.0  0.17622  0.85703  0.80158  1.0000
  C   C623      1.0  0.18586  0.84786  0.80286  1.0000
  C   C624      1.0  0.19496  0.84673  0.77574  1.0000
  H   H1071     1.0  0.18472  0.87063  0.72418  1.0000
  H   H1072     1.0  0.16789  0.87173  0.77166  1.0000
  H   H1073     1.0  0.99240  0.74646  0.53406  1.0000
  C   C625      1.0  0.09982  0.86619  0.75616  1.0000
  C   C626      1.0  0.08961  0.86682  0.73165  1.0000
  C   C627      1.0  0.08335  0.85371  0.70894  1.0000
  C   C628      1.0  0.08701  0.83963  0.71085  1.0000
  C   C629      1.0  0.09718  0.83897  0.73548  1.0000
  C   C630      1.0  0.10369  0.85221  0.75779  1.0000
  H   H1074     1.0  0.08648  0.87753  0.73023  1.0000
  H   H1075     1.0  0.07545  0.85436  0.69034  1.0000
  H   H1076     1.0  0.09991  0.82804  0.73743  1.0000
  H   H1077     1.0  0.11144  0.85147  0.77658  1.0000
  C   C631      1.0  0.10636  0.86000  0.96195  1.0000
  C   C632      1.0  0.19874  0.75926  0.95125  1.0000
  C   C633      1.0  0.13465  0.66814  0.63898  1.0000
  H   H1078     1.0  0.18308  0.89977  0.78268  1.0000
  H   H1079     1.0  0.07026  0.74653  0.52434  1.0000
  C   C634      1.0  0.09529  0.86743  0.96483  1.0000
  H   H1080     1.0  0.14524  0.66831  0.65195  1.0000
  H   H1081     1.0  0.15958  0.67771  0.99326  1.0000
  H   H1082     1.0  0.09441  0.67036  0.57376  1.0000
  H   H1083     1.0  0.09757  0.87902  0.95287  1.0000
  C   C635      1.0  0.17052  0.96515  0.87671  1.0000
  C   C636      1.0  0.18162  0.95956  0.86222  1.0000
  H   H1084     1.0  0.11555  0.69657  0.52591  1.0000
  H   H1085     1.0  0.15856  0.95640  0.88140  1.0000
  H   H1086     1.0  0.14104  0.71233  0.54120  1.0000
  H   H1087     1.0  0.20575  0.76640  0.61713  1.0000
  C   C637      1.0  0.10785  0.65748  0.92859  1.0000
  C   C638      1.0  0.20306  0.74405  0.94830  1.0000
  H   H1088     1.0  0.12002  0.81050  0.93901  1.0000
  N   N35       1.0  0.16018  0.81903  0.66706  1.0000
  C   C639      1.0  0.15361  0.80432  0.64423  1.0000
  C   C640      1.0  0.16682  0.81380  0.69605  1.0000
  C   C641      1.0  0.14701  0.82467  0.67686  1.0000
  C   C642      1.0  0.17335  0.83326  0.65115  1.0000
  C   C643      1.0  0.18726  0.82919  0.63654  1.0000
  C   C644      1.0  0.15135  0.83886  0.70263  1.0000
  C   C645      1.0  0.15451  0.80173  0.71964  1.0000
  C   C646      1.0  0.16280  0.79683  0.74699  1.0000
  C   C647      1.0  0.20835  0.77133  0.97835  1.0000
  C   C648      1.0  0.13664  0.84185  0.71425  1.0000
  H   H1089     1.0  0.14307  0.79452  0.65541  1.0000
  H   H1090     1.0  0.16235  0.79838  0.64006  1.0000
  H   H1091     1.0  0.17482  0.80754  0.68783  1.0000
  H   H1092     1.0  0.17453  0.82478  0.71034  1.0000
  H   H1093     1.0  0.13641  0.81403  0.68560  1.0000
  H   H1094     1.0  0.14284  0.82929  0.65549  1.0000
  H   H1095     1.0  0.16861  0.83875  0.63193  1.0000
  H   H1096     1.0  0.17877  0.84351  0.66901  1.0000
  H   H1097     1.0  0.18312  0.81919  0.61792  1.0000
  H   H1098     1.0  0.19332  0.82527  0.65576  1.0000
  H   H1099     1.0  0.15834  0.81706  0.59709  1.0000
  H   H1100     1.0  0.15981  0.85060  0.69216  1.0000
  H   H1101     1.0  0.15683  0.83611  0.72425  1.0000
  H   H1102     1.0  0.14674  0.80749  0.73105  1.0000
  H   H1103     1.0  0.14694  0.79022  0.70682  1.0000
  H   H1104     1.0  0.15384  0.78881  0.76440  1.0000
  H   H1105     1.0  0.16981  0.78980  0.73710  1.0000
  H   H1106     1.0  0.17085  0.80801  0.76015  1.0000
  H   H1107     1.0  0.18647  0.84184  0.82507  1.0000
  C   C649      1.0  0.10451  0.76673  0.99493  1.0000
  H   H1108     1.0  0.20489  0.79357  0.91460  1.0000
  H   H1109     1.0  0.19578  0.82347  0.85958  1.0000
  H   H1110     1.0  0.01799  0.70458  0.56364  1.0000
  H   H1111     1.0  0.14009  0.85221  0.73228  1.0000
  N   N36       1.0  0.00034  0.74272  0.58127  1.0000
  C   C650      1.0  0.01124  0.75313  0.60729  1.0000
  C   C651      1.0  0.19004  0.78602  0.97479  1.0000
  C   C652      1.0  0.98364  0.73613  0.59529  1.0000
  S   S143      1.0  0.20427  0.79951  0.62159  1.0000
  H   H1112     1.0  0.13105  0.66658  0.53106  1.0000
  C   C653      1.0  0.00975  0.74453  0.64041  1.0000
  H   H1113     1.0  0.17259  0.91075  0.73830  1.0000
  C   C654      1.0  0.20164  0.90222  0.83517  1.0000
  H   H1114     1.0  0.16599  0.79366  0.94731  1.0000
  H   H1115     1.0  0.19332  0.80250  0.86924  1.0000
  C   C655      1.0  0.02367  0.75399  0.66236  1.0000
  H   H1116     1.0  0.19218  0.90679  0.84246  1.0000
  H   H1117     1.0  0.00901  0.76464  0.61203  1.0000
  H   H1118     1.0  0.02385  0.75772  0.59927  1.0000
  H   H1119     1.0  0.13221  0.91289  0.51806  1.0000
  C   C656      1.0  0.08980  0.83809  0.99832  1.0000
  H   H1120     1.0  0.98090  0.74637  0.60676  1.0000
  H   H1121     1.0  0.98251  0.72725  0.61500  1.0000
  H   H1122     1.0  0.03010  0.74249  0.55916  1.0000
  C   C657      1.0  0.08172  0.86040  0.98489  1.0000
  H   H1123     1.0  0.12672  0.65503  0.63426  1.0000
  H   H1124     1.0  0.05328  0.82622  0.96070  1.0000
  H   H1125     1.0  0.99877  0.74402  0.65336  1.0000
  H   H1126     1.0  0.00913  0.73167  0.63716  1.0000
  H   H1127     1.0  0.99817  0.71717  0.58507  1.0000
  C   C658      1.0  0.19765  0.88352  0.88409  1.0000
  C   C659      1.0  0.19171  0.81051  0.85032  1.0000
  H   H1128     1.0  0.14660  0.67134  0.59306  1.0000
  S   S144      1.0  0.12902  0.73180  0.50369  1.0000
  S   S145      1.0  0.07146  0.85037  0.52928  1.0000
  H   H1129     1.0  0.18574  0.88381  0.88841  1.0000
  H   H1130     1.0  0.09558  0.88819  0.52969  1.0000
  H   H1131     1.0  0.13085  0.84517  0.69366  1.0000
  H   H1132     1.0  0.15122  0.70664  0.57105  1.0000
  H   H1133     1.0  0.03508  0.75502  0.65064  1.0000
  H   H1134     1.0  0.02394  0.76658  0.66789  1.0000
  H   H1135     1.0  0.02232  0.74735  0.68554  1.0000
  C   C660      1.0  0.08074  0.65145  0.94531  1.0000
  C   C661      1.0  0.13256  0.71447  0.58901  1.0000
  H   H1136     1.0  0.08880  0.69660  0.53296  1.0000
  H   H1137     1.0  0.13975  0.73837  0.61370  1.0000
  H   H1138     1.0  0.13868  0.79483  0.56558  1.0000
  C   C662      1.0  0.16874  0.79800  0.97274  1.0000
  H   H1139     1.0  0.20949  0.84100  0.61042  1.0000
  H   H1140     1.0  0.12997  0.70817  0.61268  1.0000
  C   C663      1.0  0.11355  0.68559  0.54117  1.0000
  C   C664      1.0  0.14219  0.79202  0.58964  1.0000
  H   H1141     1.0  0.02625  0.76939  0.55246  1.0000
  H   H1142     1.0  0.19509  0.88998  0.82336  1.0000
  H   H1143     1.0  0.15115  0.68620  0.96254  1.0000
  H   H1144     1.0  0.14790  0.69032  0.61329  1.0000
  H   H1145     1.0  0.97287  0.71782  0.55619  1.0000
  C   C665      1.0  0.19148  0.91022  0.76869  1.0000
  H   H1146     1.0  0.15154  0.78693  0.58577  1.0000
  H   H1147     1.0  0.02627  0.73105  0.59568  1.0000
  C   C666      1.0  0.09479  0.75868  0.50939  1.0000
  S   S146      1.0  0.12660  0.72692  0.98946  1.0000
  H   H1148     1.0  0.11804  0.68128  0.60542  1.0000
  C   C667      1.0  0.01673  0.76228  0.53551  1.0000
  H   H1149     1.0  0.19870  0.92826  0.80711  1.0000
  N   N37       1.0  0.07194  0.84497  0.86985  1.0000
  C   C668      1.0  0.06223  0.83311  0.84403  1.0000
  C   C669      1.0  0.06226  0.84313  0.90088  1.0000
  C   C670      1.0  0.07622  0.86235  0.85763  1.0000
  C   C671      1.0  0.08717  0.84269  0.87605  1.0000
  C   C672      1.0  0.08560  0.82564  0.88875  1.0000
  C   C673      1.0  0.07013  0.83433  0.80994  1.0000
  C   C674      1.0  0.08461  0.87670  0.88206  1.0000
  C   C675      1.0  0.04976  0.82559  0.90871  1.0000
  C   C676      1.0  0.04361  0.82476  0.94361  1.0000
  C   C677      1.0  0.10190  0.82466  0.89120  1.0000
  C   C678      1.0  0.05937  0.82099  0.78696  1.0000
  C   C679      1.0  0.08664  0.89342  0.86793  1.0000
  H   H1150     1.0  0.05093  0.83496  0.84080  1.0000
  H   H1151     1.0  0.05865  0.82006  0.85146  1.0000
  H   H1152     1.0  0.07027  0.84757  0.92199  1.0000
  H   H1153     1.0  0.05531  0.85119  0.90061  1.0000
  H   H1154     1.0  0.06539  0.86391  0.84901  1.0000
  H   H1155     1.0  0.08443  0.86469  0.83632  1.0000
  H   H1156     1.0  0.09472  0.84536  0.85382  1.0000
  H   H1157     1.0  0.09428  0.85183  0.89446  1.0000
  H   H1158     1.0  0.07835  0.81542  0.87249  1.0000
  H   H1159     1.0  0.08030  0.82378  0.91353  1.0000
  H   H1160     1.0  0.07233  0.84646  0.79880  1.0000
  H   H1161     1.0  0.08151  0.83258  0.81111  1.0000
  H   H1162     1.0  0.09663  0.87725  0.88764  1.0000
  H   H1163     1.0  0.07780  0.87535  0.90513  1.0000
  H   H1164     1.0  0.03946  0.82258  0.89245  1.0000
  H   H1165     1.0  0.05453  0.81579  0.90542  1.0000
  H   H1166     1.0  0.96822  0.73612  0.55513  1.0000
  H   H1167     1.0  0.03896  0.83460  0.94870  1.0000
  C   C680      1.0  0.20460  0.92185  0.79109  1.0000
  H   H1168     1.0  0.10049  0.81220  0.89964  1.0000
  H   H1169     1.0  0.10802  0.82681  0.86722  1.0000
  H   H1170     1.0  0.10939  0.83409  0.90876  1.0000
  H   H1171     1.0  0.06513  0.82223  0.76265  1.0000
  H   H1172     1.0  0.05719  0.80843  0.79601  1.0000
  H   H1173     1.0  0.04787  0.82238  0.78421  1.0000
  H   H1174     1.0  0.09363  0.89557  0.84489  1.0000
  H   H1175     1.0  0.07491  0.89394  0.86326  1.0000
  H   H1176     1.0  0.09309  0.90351  0.88533  1.0000
  N   N38       1.0  0.14603  0.79944  0.86268  1.0000
  C   C681      1.0  0.13779  0.80007  0.89460  1.0000
  C   C682      1.0  0.14059  0.78175  0.85004  1.0000
  C   C683      1.0  0.16361  0.80552  0.86914  1.0000
  C   C684      1.0  0.14367  0.81064  0.83781  1.0000
  C   C685      1.0  0.12640  0.80730  0.82864  1.0000
  C   C686      1.0  0.14206  0.81746  0.91059  1.0000
  C   C687      1.0  0.17434  0.80417  0.84038  1.0000
  C   C688      1.0  0.12295  0.77029  0.85649  1.0000
  C   C689      1.0  0.11789  0.75454  0.83558  1.0000
  C   C690      1.0  0.12571  0.82116  0.80748  1.0000
  C   C691      1.0  0.13303  0.81626  0.94272  1.0000
  H   H1177     1.0  0.10136  0.69208  0.58332  1.0000
  H   H1178     1.0  0.14021  0.79194  0.91242  1.0000
  H   H1179     1.0  0.12472  0.79490  0.89228  1.0000
  H   H1180     1.0  0.14310  0.78159  0.82353  1.0000
  H   H1181     1.0  0.14754  0.77521  0.86122  1.0000
  H   H1182     1.0  0.16575  0.79863  0.88971  1.0000
  H   H1183     1.0  0.16838  0.81883  0.87641  1.0000
  H   H1184     1.0  0.14949  0.82381  0.84572  1.0000
  H   H1185     1.0  0.14972  0.80981  0.81459  1.0000
  H   H1186     1.0  0.11880  0.80646  0.85032  1.0000
  H   H1187     1.0  0.12146  0.79562  0.81425  1.0000
  H   H1188     1.0  0.15486  0.82338  0.91611  1.0000
  H   H1189     1.0  0.13888  0.82572  0.89460  1.0000
  H   H1190     1.0  0.17373  0.81172  0.81968  1.0000
  C   C692      1.0  0.19712  0.97132  0.85646  1.0000
  H   H1191     1.0  0.12133  0.76653  0.88233  1.0000
  H   H1192     1.0  0.11466  0.77641  0.85169  1.0000
  H   H1193     1.0  0.11905  0.75759  0.80943  1.0000
  H   H1194     1.0  0.12521  0.74732  0.84080  1.0000
  H   H1195     1.0  0.10531  0.74664  0.84108  1.0000
  H   H1196     1.0  0.13021  0.83319  0.82089  1.0000
  H   H1197     1.0  0.13299  0.82234  0.78503  1.0000
  H   H1198     1.0  0.11326  0.81841  0.80053  1.0000
  H   H1199     1.0  0.13637  0.80871  0.96021  1.0000
  H   H1200     1.0  0.15595  0.73210  0.60350  1.0000
  H   H1201     1.0  0.13161  0.78248  0.60122  1.0000
  C   C693      1.0  0.18223  0.91948  0.75341  1.0000
  H   H1202     1.0  0.03392  0.81252  0.94789  1.0000
  H   H1203     1.0  0.12799  0.83061  0.72601  1.0000
  H   H1204     1.0  0.13863  0.81242  0.61318  1.0000
  H   H1205     1.0  0.18586  0.75475  0.95696  1.0000
  H   H1206     1.0  0.10068  0.84403  0.53092  1.0000
  C   C694      1.0  0.18613  0.80169  0.97997  1.0000
  H   H1207     1.0  0.19337  0.74293  0.57840  1.0000
  H   H1208     1.0  0.20064  0.76509  0.92731  1.0000
  H   H1209     1.0  0.08159  0.67460  0.52425  1.0000
  S   S147      1.0  0.11988  0.76874  0.96650  1.0000
  Fe  Fe66      1.0  0.12751  0.74724  0.95631  1.0000
  H   H1210     1.0  0.03790  0.71868  0.55389  1.0000
  C   C695      1.0  0.13985  0.67746  0.60715  1.0000
  H   H1211     1.0  0.12169  0.71552  0.57978  1.0000
  S   S148      1.0  0.20637  0.85448  0.71345  1.0000
  C   C696      1.0  0.97010  0.72705  0.57127  1.0000
  N   N39       1.0  0.20686  0.78796  0.98152  1.0000
  C   C697      1.0  0.19768  0.76718  0.59905  1.0000
  H   H1212     1.0  0.07475  0.68214  0.56010  1.0000
  H   H1213     1.0  0.07344  0.86649  0.98766  1.0000
  C   C698      1.0  0.97171  0.76485  0.65710  1.0000
  H   H1214     1.0  0.18664  0.78159  0.94967  1.0000
  H   H1215     1.0  0.10012  0.91508  0.50383  1.0000
  H   H1216     1.0  0.19566  0.73546  0.92945  1.0000
  C   C699      1.0  0.20867  0.89926  0.86738  1.0000
  S   S149      1.0  0.10040  0.68464  0.94846  1.0000
  H   H1217     1.0  0.02208  0.71635  0.52654  1.0000
  S   S150      1.0  0.20432  0.80907  0.71249  1.0000
  H   H1218     1.0  0.11025  0.89879  0.55983  1.0000
  C   C700      1.0  0.02228  0.73077  0.57040  1.0000
  H   H1219     1.0  0.10595  0.64604  0.99317  1.0000
  H   H1220     1.0  0.15098  0.70090  0.50261  1.0000
  H   H1221     1.0  0.17088  0.79119  0.83183  1.0000
  C   C701      1.0  0.13908  0.70520  0.56389  1.0000
  H   H1222     1.0  0.17678  0.92491  0.77241  1.0000
  H   H1223     1.0  0.14666  0.73940  0.57237  1.0000
  H   H1224     1.0  0.18176  0.79355  0.57117  1.0000
  Fe  Fe67      1.0  0.15221  0.73393  0.97558  1.0000
  C   C702      1.0  0.09876  0.68293  0.56318  1.0000
  C   C703      1.0  0.00064  0.75367  0.55328  1.0000
  C   C704      1.0  0.14450  0.73213  0.59496  1.0000
  H   H1225     1.0  0.14946  0.68159  0.54481  1.0000
  H   H1226     1.0  0.11207  0.83949  0.97691  1.0000
  C   C705      1.0  0.00447  0.72826  0.56996  1.0000
  C   C706      1.0  0.08787  0.85476  0.50205  1.0000
  N   N40       1.0  0.12883  0.68724  0.55750  1.0000
  H   H1227     1.0  0.12327  0.67575  0.98789  1.0000
  H   H1228     1.0  0.11743  0.79917  0.52461  1.0000
  C   C707      1.0  0.10712  0.78770  0.52417  1.0000
  H   H1229     1.0  0.97113  0.76025  0.68141  1.0000
  C   C708      1.0  0.14186  0.68813  0.50060  1.0000
  C   C709      1.0  0.10350  0.84526  0.97869  1.0000
  C   C710      1.0  0.13784  0.68016  0.53459  1.0000
  H   H1230     1.0  0.07160  0.65564  0.95384  1.0000
  H   H1231     1.0  0.20244  0.83969  0.77691  1.0000
  H   H1232     1.0  0.09223  0.90258  0.55771  1.0000
  H   H1233     1.0  0.19662  0.90526  0.74841  1.0000
  H   H1234     1.0  0.16626  0.80940  0.97636  1.0000
  H   H1235     1.0  0.00006  0.72439  0.54496  1.0000
  H   H1236     1.0  0.20587  0.96730  0.84534  1.0000
  H   H1237     1.0  0.21025  0.76508  0.51569  1.0000
  H   H1238     1.0  0.16077  0.78836  0.98927  1.0000
  H   H1239     1.0  0.16748  0.69972  0.98638  1.0000
  H   H1240     1.0  0.21017  0.89430  0.77537  1.0000
  H   H1241     1.0  0.20475  0.85456  0.63841  1.0000
  H   H1242     1.0  0.18171  0.77614  0.99040  1.0000
  H   H1243     1.0  0.20260  0.88239  0.90782  1.0000
  H   H1244     1.0  0.11440  0.92588  0.53392  1.0000
  H   H1245     1.0  0.21160  0.78495  0.53183  1.0000
  H   H1246     1.0  0.01252  0.78427  0.52238  1.0000
  H   H1247     1.0  0.96644  0.81829  0.73954  1.0000
  H   H1248     1.0  0.02013  0.75297  0.52215  1.0000
  C   C711      1.0  0.10809  0.77357  0.50908  1.0000
  H   H1249     1.0  0.21052  0.90983  0.88440  1.0000
  C   C712      1.0  0.10072  0.85044  0.50877  1.0000
  C   C713      1.0  0.01560  0.77437  0.51040  1.0000
  H   H1250     1.0  0.21185  0.77985  0.85311  1.0000
  H   H1251     1.0  0.13680  0.94502  0.50034  1.0000
  C   C714      1.0  0.12295  0.91148  0.49975  1.0000
  C   C715      1.0  0.25548  0.15189  0.36388  1.0000
  Fe  Fe68      1.0  0.24963  0.07247  0.39633  1.0000
  S   S151      1.0  0.23230  0.08510  0.39572  1.0000
  S   S152      1.0  0.27505  0.09149  0.39628  1.0000
  C   C716      1.0  0.41136  0.12511  0.43432  1.0000
  H   H1252     1.0  0.45428  0.98140  0.05456  1.0000
  Fe  Fe69      1.0  0.22601  0.13219  0.12160  1.0000
  S   S153      1.0  0.23606  0.05364  0.43355  1.0000
  S   S154      1.0  0.23824  0.05523  0.35492  1.0000
  C   C717      1.0  0.27110  0.14407  0.04309  1.0000
  S   S155      1.0  0.24298  0.13384  0.16131  1.0000
  H   H1253     1.0  0.28029  0.06354  0.42391  1.0000
  S   S156      1.0  0.24094  0.15702  0.10155  1.0000
  H   H1254     1.0  0.44412  0.98925  0.47074  1.0000
  H   H1255     1.0  0.28351  0.13248  0.48356  1.0000
  Fe  Fe70      1.0  0.25685  0.15957  0.14392  1.0000
  S   S157      1.0  0.28340  0.16594  0.14059  1.0000
  S   S158      1.0  0.24403  0.17142  0.17620  1.0000
  H   H1256     1.0  0.23456  0.02189  0.32452  1.0000
  C   C718      1.0  0.21542  0.08997  0.03748  1.0000
  S   S159      1.0  0.45215  0.00782  0.10690  1.0000
  H   H1257     1.0  0.25592  0.11983  0.43540  1.0000
  S   S160      1.0  0.44529  0.08224  0.06497  1.0000
  S   S161      1.0  0.44940  0.03880  0.03365  1.0000
  H   H1258     1.0  0.26912  0.09519  0.01319  1.0000
  H   H1259     1.0  0.39102  0.26698  0.14526  1.0000
  H   H1260     1.0  0.40193  0.13019  0.43387  1.0000
  Fe  Fe71      1.0  0.37929  0.15327  0.02609  1.0000
  Fe  Fe72      1.0  0.37581  0.14261  0.48042  1.0000
  S   S162      1.0  0.38723  0.17660  0.05744  1.0000
  H   H1261     1.0  0.27643  0.12311  0.42697  1.0000
  S   S163      1.0  0.38731  0.15633  0.43470  1.0000
  H   H1262     1.0  0.40729  0.25008  0.14785  1.0000
  H   H1263     1.0  0.35186  0.25934  0.24950  1.0000
  C   C719      1.0  0.37178  0.99870  0.12724  1.0000
  S   S164      1.0  0.36545  0.12657  0.03887  1.0000
  Fe  Fe73      1.0  0.36735  0.21062  0.30601  1.0000
  S   S165      1.0  0.36581  0.23474  0.29159  1.0000
  S   S166      1.0  0.35873  0.20009  0.35615  1.0000
  Fe  Fe74      1.0  0.37618  0.20327  0.23708  1.0000
  S   S167      1.0  0.37550  0.22677  0.21756  1.0000
  S   S168      1.0  0.37762  0.18095  0.21001  1.0000
  Fe  Fe75      1.0  0.38841  0.23943  0.26306  1.0000
  S   S169      1.0  0.41004  0.26425  0.25779  1.0000
  Fe  Fe76      1.0  0.35319  0.22055  0.24753  1.0000
  S   S170      1.0  0.33076  0.22279  0.22984  1.0000
  S   S171      1.0  0.39080  0.21601  0.28044  1.0000
  S   S172      1.0  0.35301  0.19639  0.26408  1.0000
  C   C720      1.0  0.41569  0.28522  0.27235  1.0000
  C   C721      1.0  0.40596  0.29030  0.29299  1.0000
  C   C722      1.0  0.41978  0.99205  0.09755  1.0000
  C   C723      1.0  0.43018  0.29734  0.26153  1.0000
  H   H1264     1.0  0.39483  0.28123  0.30174  1.0000
  H   H1265     1.0  0.40728  0.05806  0.14411  1.0000
  C   C724      1.0  0.38456  0.17746  0.09989  1.0000
  C   C725      1.0  0.37935  0.16322  0.11876  1.0000
  C   C726      1.0  0.37733  0.16450  0.15250  1.0000
  C   C727      1.0  0.38022  0.17995  0.16754  1.0000
  C   C728      1.0  0.38532  0.19417  0.14862  1.0000
  C   C729      1.0  0.38759  0.19292  0.11497  1.0000
  H   H1266     1.0  0.37703  0.15126  0.10743  1.0000
  H   H1267     1.0  0.37349  0.15348  0.16705  1.0000
  H   H1268     1.0  0.38775  0.20613  0.16001  1.0000
  H   H1269     1.0  0.39172  0.20400  0.10055  1.0000
  C   C730      1.0  0.37909  0.16830  0.41302  1.0000
  C   C731      1.0  0.38488  0.17359  0.38167  1.0000
  C   C732      1.0  0.37881  0.18337  0.36393  1.0000
  C   C733      1.0  0.36702  0.18812  0.37762  1.0000
  C   C734      1.0  0.36128  0.18286  0.40902  1.0000
  C   C735      1.0  0.36714  0.17284  0.42653  1.0000
  H   H1270     1.0  0.39414  0.17016  0.37105  1.0000
  H   H1271     1.0  0.38335  0.18737  0.33981  1.0000
  H   H1272     1.0  0.35230  0.18665  0.41991  1.0000
  H   H1273     1.0  0.36263  0.16887  0.45064  1.0000
  C   C736      1.0  0.43026  0.08707  0.04591  1.0000
  C   C737      1.0  0.42629  0.10006  0.05885  1.0000
  C   C738      1.0  0.41425  0.10417  0.04516  1.0000
  Fe  Fe77      1.0  0.21816  0.06545  0.43084  1.0000
  H   H1274     1.0  0.39907  0.29917  0.12774  1.0000
  H   H1275     1.0  0.44813  0.14062  0.02338  1.0000
  C   C739      1.0  0.40365  0.10662  0.42629  1.0000
  H   H1276     1.0  0.41136  0.11415  0.05552  1.0000
  H   H1277     1.0  0.30145  0.06271  0.45999  1.0000
  H   H1278     1.0  0.42564  0.01564  0.15857  1.0000
  H   H1279     1.0  0.39678  0.04558  0.05874  1.0000
  H   H1280     1.0  0.39838  0.06912  0.07986  1.0000
  H   H1281     1.0  0.42102  0.00125  0.07958  1.0000
  C   C740      1.0  0.29610  0.18145  0.16660  1.0000
  C   C741      1.0  0.29226  0.19467  0.17775  1.0000
  C   C742      1.0  0.30294  0.20721  0.19732  1.0000
  C   C743      1.0  0.31746  0.20656  0.20608  1.0000
  C   C744      1.0  0.32115  0.19314  0.19548  1.0000
  C   C745      1.0  0.31052  0.18068  0.17574  1.0000
  H   H1282     1.0  0.28121  0.19542  0.17075  1.0000
  H   H1283     1.0  0.30001  0.21755  0.20546  1.0000
  H   H1284     1.0  0.33226  0.19245  0.20223  1.0000
  H   H1285     1.0  0.31337  0.17027  0.16800  1.0000
  H   H1286     1.0  0.39815  0.10483  0.40206  1.0000
  H   H1287     1.0  0.39339  0.00583  0.09955  1.0000
  C   C746      1.0  0.41169  0.26273  0.15877  1.0000
  H   H1288     1.0  0.45579  0.01004  0.45729  1.0000
  C   C747      1.0  0.40403  0.02565  0.04870  1.0000
  C   C748      1.0  0.42299  0.15747  0.46730  1.0000
  H   H1289     1.0  0.43096  0.04603  0.10326  1.0000
  C   C749      1.0  0.42271  0.03900  0.15222  1.0000
  C   C750      1.0  0.38899  0.30223  0.13676  1.0000
  C   C751      1.0  0.38890  0.01056  0.12092  1.0000
  H   H1290     1.0  0.38357  0.05612  0.10778  1.0000
  H   H1291     1.0  0.44405  0.15545  0.42937  1.0000
  H   H1292     1.0  0.37200  0.19175  0.00882  1.0000
  C   C752      1.0  0.27085  0.12526  0.47811  1.0000
  H   H1293     1.0  0.36612  0.27033  0.28014  1.0000
  C   C753      1.0  0.28964  0.09015  0.42205  1.0000
  C   C754      1.0  0.30179  0.10485  0.43241  1.0000
  C   C755      1.0  0.31377  0.10442  0.45269  1.0000
  H   H1294     1.0  0.43894  0.99758  0.03547  1.0000
  C   C756      1.0  0.30160  0.07451  0.45221  1.0000
  C   C757      1.0  0.28958  0.07495  0.43190  1.0000
  H   H1295     1.0  0.30174  0.11662  0.42533  1.0000
  H   H1296     1.0  0.32291  0.11582  0.46093  1.0000
  C   C758      1.0  0.38038  0.29155  0.16600  1.0000
  C   C759      1.0  0.41919  0.12836  0.46817  1.0000
  N   N41       1.0  0.33523  0.18648  0.07865  1.0000
  C   C760      1.0  0.34946  0.18705  0.05852  1.0000
  C   C761      1.0  0.32904  0.17054  0.09737  1.0000
  C   C762      1.0  0.32239  0.18591  0.05558  1.0000
  C   C763      1.0  0.33872  0.20137  0.10104  1.0000
  C   C764      1.0  0.35576  0.20951  0.11456  1.0000
  C   C765      1.0  0.35529  0.20083  0.03267  1.0000
  C   C766      1.0  0.30600  0.18330  0.07121  1.0000
  C   C767      1.0  0.34014  0.16848  0.12317  1.0000
  C   C768      1.0  0.33370  0.15088  0.13632  1.0000
  C   C769      1.0  0.35702  0.22327  0.13911  1.0000
  N   N42       1.0  0.39059  0.29117  0.19392  1.0000
  H   H1297     1.0  0.34687  0.17503  0.04539  1.0000
  H   H1298     1.0  0.35966  0.18837  0.07401  1.0000
  H   H1299     1.0  0.31795  0.16914  0.11087  1.0000
  H   H1300     1.0  0.32582  0.15975  0.08023  1.0000
  H   H1301     1.0  0.32041  0.17583  0.03720  1.0000
  H   H1302     1.0  0.32615  0.19765  0.04185  1.0000
  H   H1303     1.0  0.33653  0.21148  0.08871  1.0000
  H   H1304     1.0  0.33032  0.19812  0.12216  1.0000
  H   H1305     1.0  0.36452  0.21517  0.09487  1.0000
  H   H1306     1.0  0.35939  0.20044  0.12670  1.0000
  H   H1307     1.0  0.30719  0.19085  0.09369  1.0000
  H   H1308     1.0  0.29966  0.17005  0.07728  1.0000
  H   H1309     1.0  0.35212  0.17090  0.11314  1.0000
  H   H1310     1.0  0.34107  0.17702  0.14402  1.0000
  H   H1311     1.0  0.34149  0.15006  0.15595  1.0000
  H   H1312     1.0  0.32151  0.14755  0.14643  1.0000
  H   H1313     1.0  0.33361  0.14190  0.11682  1.0000
  H   H1314     1.0  0.35343  0.23277  0.12818  1.0000
  H   H1315     1.0  0.34938  0.21809  0.16074  1.0000
  H   H1316     1.0  0.36950  0.22937  0.14707  1.0000
  H   H1317     1.0  0.21716  0.01301  0.25992  1.0000
  H   H1318     1.0  0.35891  0.28578  0.21939  1.0000
  C   C770      1.0  0.43149  0.98030  0.13696  1.0000
  H   H1319     1.0  0.42001  0.15687  0.44117  1.0000
  H   H1320     1.0  0.25229  0.09871  0.15635  1.0000
  H   H1321     1.0  0.26867  0.06884  0.03872  1.0000
  H   H1322     1.0  0.44384  0.03303  0.14955  1.0000
  C   C771      1.0  0.39724  0.08077  0.12518  1.0000
  H   H1323     1.0  0.26496  0.04911  0.48905  1.0000
  H   H1324     1.0  0.27107  0.14044  0.43706  1.0000
  H   H1325     1.0  0.25571  0.19170  0.28822  1.0000
  N   N43       1.0  0.40584  0.04104  0.10418  1.0000
  C   C772      1.0  0.42202  0.07828  0.01887  1.0000
  H   H1326     1.0  0.35551  0.21280  0.04263  1.0000
  H   H1327     1.0  0.38728  0.27671  0.23733  1.0000
  C   C773      1.0  0.39793  0.30806  0.21017  1.0000
  H   H1328     1.0  0.27202  0.14856  0.06866  1.0000
  H   H1329     1.0  0.29421  0.18093  0.02482  1.0000
  H   H1330     1.0  0.37322  0.29644  0.24985  1.0000
  S   S173      1.0  0.21591  0.10802  0.09297  1.0000
  C   C774      1.0  0.39010  0.02862  0.11637  1.0000
  Fe  Fe78      1.0  0.22661  0.16686  0.13550  1.0000
  H   H1331     1.0  0.42010  0.06721  0.11092  1.0000
  H   H1332     1.0  0.39183  0.01636  0.05268  1.0000
  N   N44       1.0  0.27261  0.16896  0.27801  1.0000
  C   C775      1.0  0.27087  0.15263  0.26218  1.0000
  C   C776      1.0  0.26565  0.17775  0.25552  1.0000
  C   C777      1.0  0.28967  0.18016  0.28433  1.0000
  C   C778      1.0  0.30137  0.17183  0.29261  1.0000
  C   C779      1.0  0.27764  0.15369  0.22722  1.0000
  C   C780      1.0  0.26480  0.19418  0.26858  1.0000
  C   C781      1.0  0.31636  0.18438  0.30805  1.0000
  C   C782      1.0  0.27880  0.13740  0.21617  1.0000
  C   C783      1.0  0.26000  0.20318  0.24204  1.0000
  H   H1333     1.0  0.25809  0.14427  0.26108  1.0000
  H   H1334     1.0  0.27639  0.14585  0.27673  1.0000
  H   H1335     1.0  0.25345  0.16944  0.24846  1.0000
  H   H1336     1.0  0.27268  0.18091  0.23254  1.0000
  H   H1337     1.0  0.29509  0.18799  0.26285  1.0000
  H   H1338     1.0  0.29012  0.18921  0.30409  1.0000
  H   H1339     1.0  0.30501  0.16692  0.27015  1.0000
  H   H1340     1.0  0.29622  0.16138  0.30937  1.0000
  H   H1341     1.0  0.26971  0.15632  0.21011  1.0000
  H   H1342     1.0  0.28957  0.16369  0.22539  1.0000
  H   H1343     1.0  0.27643  0.20269  0.27796  1.0000
  H   H1344     1.0  0.40936  0.12525  0.48653  1.0000
  H   H1345     1.0  0.32188  0.19529  0.29217  1.0000
  H   H1346     1.0  0.31354  0.18868  0.33203  1.0000
  H   H1347     1.0  0.32513  0.17867  0.31171  1.0000
  H   H1348     1.0  0.28322  0.13852  0.19068  1.0000
  H   H1349     1.0  0.28718  0.13447  0.23154  1.0000
  H   H1350     1.0  0.26693  0.12714  0.21735  1.0000
  H   H1351     1.0  0.24799  0.19543  0.23307  1.0000
  H   H1352     1.0  0.25969  0.21496  0.25192  1.0000
  H   H1353     1.0  0.26865  0.20613  0.22146  1.0000
  H   H1354     1.0  0.21785  0.10770  0.21620  1.0000
  H   H1355     1.0  0.27906  0.16339  0.34512  1.0000
  H   H1356     1.0  0.26203  0.14745  0.03106  1.0000
  C   C784      1.0  0.22646  0.11969  0.03140  1.0000
  H   H1357     1.0  0.43258  0.10698  0.07973  1.0000
  C   C785      1.0  0.22137  0.10427  0.30926  1.0000
  C   C786      1.0  0.31368  0.08925  0.46280  1.0000
  C   C787      1.0  0.44575  0.15011  0.45260  1.0000
  H   H1358     1.0  0.41974  0.27152  0.14102  1.0000
  H   H1359     1.0  0.22214  0.10335  0.33520  1.0000
  H   H1360     1.0  0.45981  0.03668  0.23774  1.0000
  H   H1361     1.0  0.38686  0.03259  0.14039  1.0000
  H   H1362     1.0  0.46197  0.01808  0.25135  1.0000
  H   H1363     1.0  0.39595  0.00984  0.14194  1.0000
  H   H1364     1.0  0.25531  0.16348  0.37513  1.0000
  H   H1365     1.0  0.24189  0.01681  0.28676  1.0000
  H   H1366     1.0  0.24334  0.14400  0.35588  1.0000
  H   H1367     1.0  0.43478  0.03116  0.18922  1.0000
  H   H1368     1.0  0.41140  0.03469  0.16629  1.0000
  H   H1369     1.0  0.23795  0.03547  0.29023  1.0000
  C   C788      1.0  0.35810  0.27159  0.26144  1.0000
  N   N45       1.0  0.32492  0.13744  0.35480  1.0000
  C   C789      1.0  0.31450  0.12105  0.33973  1.0000
  C   C790      1.0  0.33487  0.13478  0.38138  1.0000
  C   C791      1.0  0.31403  0.14513  0.36974  1.0000
  C   C792      1.0  0.33537  0.14926  0.32993  1.0000
  C   C793      1.0  0.34739  0.14369  0.31133  1.0000
  C   C794      1.0  0.30270  0.12162  0.31375  1.0000
  C   C795      1.0  0.32201  0.16099  0.39079  1.0000
  C   C796      1.0  0.33977  0.11965  0.37758  1.0000
  C   C797      1.0  0.35222  0.12036  0.40229  1.0000
  C   C798      1.0  0.35636  0.15623  0.28540  1.0000
  C   C799      1.0  0.29341  0.10433  0.29978  1.0000
  C   C800      1.0  0.30958  0.16659  0.40664  1.0000
  H   H1370     1.0  0.30735  0.11256  0.35910  1.0000
  H   H1371     1.0  0.32169  0.11465  0.32816  1.0000
  H   H1372     1.0  0.34583  0.14612  0.38496  1.0000
  H   H1373     1.0  0.32842  0.13286  0.40509  1.0000
  H   H1374     1.0  0.30468  0.13588  0.38489  1.0000
  H   H1375     1.0  0.30769  0.14878  0.35060  1.0000
  H   H1376     1.0  0.32811  0.15239  0.31198  1.0000
  H   H1377     1.0  0.34264  0.16129  0.34165  1.0000
  H   H1378     1.0  0.34145  0.13154  0.29902  1.0000
  H   H1379     1.0  0.35639  0.14298  0.32822  1.0000
  H   H1380     1.0  0.29380  0.12614  0.32435  1.0000
  H   H1381     1.0  0.30902  0.12969  0.29336  1.0000
  H   H1382     1.0  0.32986  0.17133  0.37568  1.0000
  H   H1383     1.0  0.32909  0.15897  0.41048  1.0000
  H   H1384     1.0  0.32925  0.10800  0.38169  1.0000
  H   H1385     1.0  0.34473  0.11884  0.35320  1.0000
  H   H1386     1.0  0.35445  0.10874  0.40092  1.0000
  H   H1387     1.0  0.36353  0.13089  0.39698  1.0000
  H   H1388     1.0  0.34815  0.12177  0.42731  1.0000
  H   H1389     1.0  0.36517  0.15221  0.27274  1.0000
  H   H1390     1.0  0.34808  0.15728  0.26707  1.0000
  H   H1391     1.0  0.36285  0.16864  0.29653  1.0000
  H   H1392     1.0  0.28654  0.09585  0.31929  1.0000
  H   H1393     1.0  0.28491  0.10499  0.28155  1.0000
  H   H1394     1.0  0.30155  0.09917  0.28779  1.0000
  H   H1395     1.0  0.31563  0.17815  0.42092  1.0000
  H   H1396     1.0  0.30231  0.16917  0.38792  1.0000
  H   H1397     1.0  0.30172  0.15695  0.42325  1.0000
  H   H1398     1.0  0.41135  0.07543  0.48117  1.0000
  C   C801      1.0  0.26723  0.15579  0.33531  1.0000
  H   H1399     1.0  0.41195  0.29349  0.16626  1.0000
  H   H1400     1.0  0.45727  0.00211  0.01344  1.0000
  H   H1401     1.0  0.44289  0.12733  0.42490  1.0000
  C   C802      1.0  0.43234  0.02910  0.16292  1.0000
  C   C803      1.0  0.22138  0.16651  0.02955  1.0000
  H   H1402     1.0  0.22384  0.31118  0.01015  1.0000
  H   H1403     1.0  0.40952  0.09027  0.12370  1.0000
  H   H1404     1.0  0.38042  0.02822  0.09998  1.0000
  H   H1405     1.0  0.26360  0.17728  0.32106  1.0000
  H   H1406     1.0  0.43786  0.29367  0.24560  1.0000
  H   H1407     1.0  0.41846  0.26268  0.18081  1.0000
  C   C804      1.0  0.41984  0.03742  0.11512  1.0000
  C   C805      1.0  0.23383  0.02235  0.29780  1.0000
  H   H1408     1.0  0.41773  0.05145  0.05945  1.0000
  C   C806      1.0  0.44387  0.14866  0.00910  1.0000
  H   H1409     1.0  0.44175  0.98066  0.15007  1.0000
  H   H1410     1.0  0.39001  0.25801  0.18459  1.0000
  H   H1411     1.0  0.38907  0.08614  0.11524  1.0000
  H   H1412     1.0  0.30070  0.20139  0.04331  1.0000
  H   H1413     1.0  0.41262  0.10091  0.42590  1.0000
  N   N46       1.0  0.27430  0.10182  0.06350  1.0000
  C   C807      1.0  0.26338  0.09147  0.03743  1.0000
  C   C808      1.0  0.27894  0.12005  0.05689  1.0000
  C   C809      1.0  0.28920  0.09812  0.06215  1.0000
  C   C810      1.0  0.26703  0.09747  0.09697  1.0000
  C   C811      1.0  0.25110  0.09942  0.10363  1.0000
  C   C812      1.0  0.25827  0.07245  0.03983  1.0000
  C   C813      1.0  0.30365  0.11021  0.08134  1.0000
  C   C814      1.0  0.26617  0.12531  0.04183  1.0000
  C   C815      1.0  0.40592  0.09526  0.01832  1.0000
  C   C816      1.0  0.24403  0.09229  0.13654  1.0000
  H   H1414     1.0  0.40299  0.31085  0.31836  1.0000
  C   C817      1.0  0.31669  0.10335  0.08347  1.0000
  H   H1415     1.0  0.41279  0.02050  0.05579  1.0000
  H   H1416     1.0  0.25226  0.09376  0.03659  1.0000
  H   H1417     1.0  0.28327  0.12752  0.07948  1.0000
  H   H1418     1.0  0.28906  0.12439  0.03916  1.0000
  H   H1419     1.0  0.29336  0.09802  0.03656  1.0000
  H   H1420     1.0  0.28672  0.08548  0.07133  1.0000
  H   H1421     1.0  0.26539  0.08456  0.10289  1.0000
  H   H1422     1.0  0.27523  0.10531  0.11564  1.0000
  H   H1423     1.0  0.24217  0.09292  0.08510  1.0000
  H   H1424     1.0  0.25302  0.11274  0.10457  1.0000
  C   C818      1.0  0.40800  0.05808  0.11717  1.0000
  H   H1425     1.0  0.25149  0.06784  0.06264  1.0000
  H   H1426     1.0  0.30033  0.11248  0.10641  1.0000
  H   H1427     1.0  0.30889  0.12234  0.06907  1.0000
  C   C819      1.0  0.21695  0.08997  0.28979  1.0000
  H   H1428     1.0  0.25457  0.11975  0.05428  1.0000
  H   H1429     1.0  0.36744  0.30281  0.11595  1.0000
  H   H1430     1.0  0.21352  0.99966  0.29463  1.0000
  H   H1431     1.0  0.34911  0.27546  0.27370  1.0000
  H   H1432     1.0  0.37132  0.29642  0.17425  1.0000
  H   H1433     1.0  0.23274  0.09409  0.14092  1.0000
  H   H1434     1.0  0.24142  0.07880  0.13710  1.0000
  H   H1435     1.0  0.25293  0.10042  0.48298  1.0000
  C   C820      1.0  0.21967  0.10591  0.05123  1.0000
  C   C821      1.0  0.36753  0.28451  0.23655  1.0000
  H   H1436     1.0  0.31249  0.09186  0.09793  1.0000
  H   H1437     1.0  0.32034  0.10057  0.05892  1.0000
  H   H1438     1.0  0.32726  0.11263  0.09536  1.0000
  H   H1439     1.0  0.28357  0.18477  0.05936  1.0000
  H   H1440     1.0  0.22689  0.13057  0.31059  1.0000
  H   H1441     1.0  0.39991  0.30671  0.23634  1.0000
  C   C822      1.0  0.40628  0.04182  0.06764  1.0000
  H   H1442     1.0  0.28266  0.15022  0.03031  1.0000
  C   C823      1.0  0.37187  0.20342  0.01975  1.0000
  C   C824      1.0  0.26279  0.16552  0.30894  1.0000
  Fe  Fe79      1.0  0.22004  0.06661  0.35664  1.0000
  H   H1443     1.0  0.41894  0.02496  0.10694  1.0000
  H   H1444     1.0  0.25000  0.15867  0.30313  1.0000
  H   H1445     1.0  0.26447  0.12129  0.01596  1.0000
  H   H1446     1.0  0.41061  0.28501  0.20486  1.0000
  Fe  Fe80      1.0  0.45822  0.06438  0.05666  1.0000
  H   H1447     1.0  0.26718  0.14380  0.32590  1.0000
  C   C825      1.0  0.26841  0.12723  0.44216  1.0000
  H   H1448     1.0  0.25902  0.14504  0.38248  1.0000
  C   C826      1.0  0.43310  0.99261  0.11434  1.0000
  H   H1449     1.0  0.42008  0.13122  0.41483  1.0000
  C   C827      1.0  0.39594  0.06530  0.10554  1.0000
  Fe  Fe81      1.0  0.22915  0.14531  0.19137  1.0000
  C   C828      1.0  0.29553  0.18789  0.04810  1.0000
  C   C829      1.0  0.40986  0.08227  0.00540  1.0000
  H   H1450     1.0  0.39394  0.07766  0.15098  1.0000
  H   H1451     1.0  0.37344  0.27873  0.15705  1.0000
  H   H1452     1.0  0.42944  0.05223  0.15882  1.0000
  C   C830      1.0  0.39766  0.26751  0.16771  1.0000
  C   C831      1.0  0.40609  0.02870  0.01223  1.0000
  H   H1453     1.0  0.39732  0.03359  0.00350  1.0000
  H   H1454     1.0  0.37312  0.26696  0.20705  1.0000
  H   H1455     1.0  0.43149  0.20016  0.46782  1.0000
  H   H1456     1.0  0.41824  0.03768  0.00638  1.0000
  C   C832      1.0  0.21893  0.10683  0.24207  1.0000
  H   H1457     1.0  0.42446  0.11905  0.47190  1.0000
  H   H1458     1.0  0.39420  0.10023  0.44438  1.0000
  C   C833      1.0  0.24765  0.06357  0.01159  1.0000
  H   H1459     1.0  0.27332  0.30232  0.02653  1.0000
  Fe  Fe82      1.0  0.22271  0.03729  0.39194  1.0000
  S   S174      1.0  0.39069  0.09985  0.99954  1.0000
  H   H1460     1.0  0.43192  0.16555  0.02040  1.0000
  C   C834      1.0  0.22411  0.11970  0.29527  1.0000
  H   H1461     1.0  0.36427  0.99824  0.10616  1.0000
  Fe  Fe83      1.0  0.45944  0.03108  0.07685  1.0000
  H   H1462     1.0  0.42501  0.06842  0.00829  1.0000
  S   S175      1.0  0.22576  0.14061  0.24548  1.0000
  C   C835      1.0  0.22285  0.12104  0.26169  1.0000
  S   S176      1.0  0.37332  0.11600  0.48216  1.0000
  H   H1463     1.0  0.26347  0.13079  0.49183  1.0000
  H   H1464     1.0  0.23018  0.13201  0.04179  1.0000
  C   C836      1.0  0.37998  0.27919  0.21853  1.0000
  S   S177      1.0  0.21923  0.18690  0.11434  1.0000
  Fe  Fe84      1.0  0.38137  0.12093  0.00142  1.0000
  H   H1465     1.0  0.23847  0.30609  0.03101  1.0000
  H   H1466     1.0  0.45154  0.12820  0.46345  1.0000
  H   H1467     1.0  0.22621  0.10275  0.45689  1.0000
  C   C837      1.0  0.22348  0.10334  0.48239  1.0000
  H   H1468     1.0  0.23598  0.12978  0.48619  1.0000
  H   H1469     1.0  0.37329  0.28651  0.09983  1.0000
  C   C838      1.0  0.40337  0.28502  0.18358  1.0000
  S   S178      1.0  0.21804  0.00960  0.38508  1.0000
  H   H1470     1.0  0.38406  0.30768  0.08812  1.0000
  H   H1471     1.0  0.37145  0.98602  0.13108  1.0000
  H   H1472     1.0  0.42348  0.18553  0.43506  1.0000
  H   H1473     1.0  0.23115  0.16352  0.01836  1.0000
  H   H1474     1.0  0.36684  0.00260  0.14928  1.0000
  C   C839      1.0  0.21429  0.08888  0.49866  1.0000
  C   C840      1.0  0.45288  0.99669  0.45232  1.0000
  C   C841      1.0  0.43591  0.15677  0.03301  1.0000
  C   C842      1.0  0.37769  0.29960  0.10851  1.0000
  C   C843      1.0  0.22136  0.31070  0.06174  1.0000
  C   C844      1.0  0.43245  0.17605  0.47547  1.0000
  H   H1475     1.0  0.37552  0.21305  0.00080  1.0000
  H   H1476     1.0  0.21278  0.29762  0.06103  1.0000
  N   N47       1.0  0.43111  0.14573  0.47409  1.0000
  H   H1477     1.0  0.45593  0.16016  0.46424  1.0000
  H   H1478     1.0  0.42551  0.14722  0.04511  1.0000
  C   C845      1.0  0.45116  0.13580  0.44269  1.0000
  H   H1479     1.0  0.44744  0.99358  0.42805  1.0000
  H   H1480     1.0  0.23676  0.06636  0.01161  1.0000
  C   C846      1.0  0.21580  0.09133  0.25615  1.0000
  H   H1481     1.0  0.34721  0.19727  0.01166  1.0000
  H   H1482     1.0  0.21803  0.17423  0.01250  1.0000
  H   H1483     1.0  0.41976  0.01617  0.48283  1.0000
  H   H1484     1.0  0.44446  0.16375  0.05194  1.0000
  H   H1485     1.0  0.24405  0.04997  0.01372  1.0000
  H   H1486     1.0  0.41235  0.18358  0.47261  1.0000
  C   C847      1.0  0.41065  0.30716  0.30241  1.0000
  S   S179      1.0  0.32807  0.08831  0.48963  1.0000
  H   H1487     1.0  0.38064  0.20756  0.03956  1.0000
  H   H1488     1.0  0.27164  0.10145  0.46804  1.0000
  H   H1489     1.0  0.27981  0.07942  0.49342  1.0000
  C   C848      1.0  0.21766  0.08780  0.00408  1.0000
  C   C849      1.0  0.26595  0.10675  0.48681  1.0000
  S   S180      1.0  0.35101  0.13762  0.49812  1.0000
  C   C850      1.0  0.44536  0.99237  0.01819  1.0000
  C   C851      1.0  0.42443  0.18695  0.46185  1.0000
  H   H1490     1.0  0.40165  0.99805  0.48836  1.0000
  H   H1491     1.0  0.22580  0.17374  0.05219  1.0000
  H   H1492     1.0  0.41143  0.15363  0.48068  1.0000
  C   C852      1.0  0.21688  0.01264  0.28670  1.0000
  H   H1493     1.0  0.26070  0.07421  0.47600  1.0000
  H   H1494     1.0  0.44470  0.18032  0.46532  1.0000
  C   C853      1.0  0.40498  0.97912  0.10316  1.0000
  S   S181      1.0  0.32323  0.11921  0.99893  1.0000
  H   H1495     1.0  0.40423  0.01689  0.99913  1.0000
  C   C854      1.0  0.23104  0.18776  0.54016  1.0000
  Fe  Fe85      1.0  0.25119  0.06308  0.89577  1.0000
  S   S182      1.0  0.24799  0.08588  0.88053  1.0000
  S   S183      1.0  0.27604  0.06444  0.90551  1.0000
  C   C855      1.0  0.22647  0.01575  0.78865  1.0000
  Fe  Fe86      1.0  0.23183  0.07013  0.84232  1.0000
  S   S184      1.0  0.23464  0.07792  0.78934  1.0000
  S   S185      1.0  0.23066  0.05502  0.93134  1.0000
  S   S186      1.0  0.23678  0.04758  0.85459  1.0000
  H   H1496     1.0  0.22896  0.17475  0.75725  1.0000
  S   S187      1.0  0.24070  0.13937  0.64792  1.0000
  H   H1497     1.0  0.27275  0.09174  0.94290  1.0000
  S   S188      1.0  0.24426  0.17287  0.60982  1.0000
  Fe  Fe87      1.0  0.23001  0.14567  0.60436  1.0000
  C   C856      1.0  0.29526  0.10415  0.96662  1.0000
  Fe  Fe88      1.0  0.25391  0.16671  0.65468  1.0000
  S   S189      1.0  0.27997  0.17171  0.66081  1.0000
  S   S190      1.0  0.23506  0.17030  0.68638  1.0000
  H   H1498     1.0  0.21973  0.22435  0.72293  1.0000
  H   H1499     1.0  0.22851  0.00622  0.80315  1.0000
  S   S191      1.0  0.44420  0.99637  0.55071  1.0000
  S   S192      1.0  0.21635  0.19535  0.62703  1.0000
  H   H1500     1.0  0.37232  0.18819  0.54355  1.0000
  H   H1501     1.0  0.39720  0.09341  0.49962  1.0000
  H   H1502     1.0  0.42414  0.00464  0.59862  1.0000
  S   S193      1.0  0.36462  0.11889  0.96048  1.0000
  H   H1503     1.0  0.34920  0.10783  0.85086  1.0000
  Fe  Fe89      1.0  0.36153  0.14186  0.54809  1.0000
  S   S194      1.0  0.38667  0.14899  0.52996  1.0000
  S   S195      1.0  0.35132  0.15448  0.58603  1.0000
  Fe  Fe90      1.0  0.37834  0.14607  0.95292  1.0000
  S   S196      1.0  0.38449  0.15493  0.90089  1.0000
  Fe  Fe91      1.0  0.38226  0.12177  0.53296  1.0000
  S   S197      1.0  0.40054  0.11416  0.55798  1.0000
  H   H1504     1.0  0.21349  0.10577  0.57398  1.0000
  S   S198      1.0  0.35779  0.11517  0.55472  1.0000
  Fe  Fe92      1.0  0.37612  0.22683  0.79325  1.0000
  S   S199      1.0  0.36832  0.24813  0.78640  1.0000
  S   S200      1.0  0.37306  0.21687  0.84485  1.0000
  Fe  Fe93      1.0  0.38264  0.22461  0.72107  1.0000
  S   S201      1.0  0.37525  0.24547  0.70914  1.0000
  S   S202      1.0  0.39242  0.21193  0.68249  1.0000
  Fe  Fe94      1.0  0.38933  0.25908  0.75257  1.0000
  S   S203      1.0  0.40232  0.28721  0.74370  1.0000
  Fe  Fe95      1.0  0.35503  0.23333  0.74380  1.0000
  S   S204      1.0  0.33027  0.23246  0.73568  1.0000
  S   S205      1.0  0.39826  0.23877  0.76233  1.0000
  S   S206      1.0  0.36130  0.21135  0.75271  1.0000
  C   C857      1.0  0.41638  0.30527  0.76273  1.0000
  C   C858      1.0  0.42442  0.30460  0.79078  1.0000
  C   C859      1.0  0.40045  0.11428  0.90272  1.0000
  H   H1505     1.0  0.37477  0.99767  0.54306  1.0000
  H   H1506     1.0  0.42206  0.29276  0.80182  1.0000
  H   H1507     1.0  0.34357  0.17687  0.53200  1.0000
  C   C860      1.0  0.36303  0.17064  0.61215  1.0000
  C   C861      1.0  0.37959  0.17660  0.61136  1.0000
  C   C862      1.0  0.38844  0.18949  0.63263  1.0000
  C   C863      1.0  0.38085  0.19675  0.65437  1.0000
  C   C864      1.0  0.36429  0.19109  0.65451  1.0000
  C   C865      1.0  0.35543  0.17777  0.63415  1.0000
  H   H1508     1.0  0.38558  0.17118  0.59459  1.0000
  H   H1509     1.0  0.40125  0.19382  0.63232  1.0000
  H   H1510     1.0  0.35834  0.19666  0.67106  1.0000
  H   H1511     1.0  0.34262  0.17303  0.63530  1.0000
  C   C866      1.0  0.38100  0.17203  0.88558  1.0000
  C   C867      1.0  0.38412  0.17603  0.85263  1.0000
  C   C868      1.0  0.38162  0.18963  0.83974  1.0000
  C   C869      1.0  0.37603  0.19940  0.85967  1.0000
  C   C870      1.0  0.37266  0.19522  0.89248  1.0000
  C   C871      1.0  0.37511  0.18162  0.90539  1.0000
  H   H1512     1.0  0.38874  0.16875  0.83717  1.0000
  H   H1513     1.0  0.38426  0.19284  0.81463  1.0000
  H   H1514     1.0  0.36837  0.20274  0.90812  1.0000
  H   H1515     1.0  0.37277  0.17880  0.93081  1.0000
  C   C872      1.0  0.42544  0.07939  0.52411  1.0000
  C   C873      1.0  0.36757  0.19335  0.52384  1.0000
  C   C874      1.0  0.43013  0.98464  0.57963  1.0000
  C   C875      1.0  0.40936  0.10007  0.54487  1.0000
  C   C876      1.0  0.42055  0.09755  0.56474  1.0000
  C   C877      1.0  0.42858  0.08731  0.55444  1.0000
  H   H1516     1.0  0.26858  0.05554  0.53087  1.0000
  H   H1517     1.0  0.32117  0.16939  0.98058  1.0000
  N   N48       1.0  0.44969  0.98147  0.69513  1.0000
  H   H1518     1.0  0.43735  0.08575  0.56975  1.0000
  H   H1519     1.0  0.28548  0.10334  0.82754  1.0000
  H   H1520     1.0  0.40437  0.00100  0.54771  1.0000
  H   H1521     1.0  0.25414  0.06745  0.98816  1.0000
  C   C878      1.0  0.29353  0.18858  0.68230  1.0000
  C   C879      1.0  0.28977  0.20194  0.69287  1.0000
  C   C880      1.0  0.30115  0.21533  0.70939  1.0000
  C   C881      1.0  0.31626  0.21540  0.71536  1.0000
  C   C882      1.0  0.31988  0.20189  0.70525  1.0000
  C   C883      1.0  0.30854  0.18854  0.68874  1.0000
  H   H1522     1.0  0.27822  0.20205  0.68800  1.0000
  H   H1523     1.0  0.29831  0.22576  0.71729  1.0000
  H   H1524     1.0  0.33147  0.20185  0.70988  1.0000
  H   H1525     1.0  0.31140  0.17812  0.68099  1.0000
  H   H1526     1.0  0.45386  0.15217  0.56505  1.0000
  H   H1527     1.0  0.43833  0.99875  0.68834  1.0000
  H   H1528     1.0  0.36284  0.11934  0.88211  1.0000
  H   H1529     1.0  0.45999  0.99981  0.94273  1.0000
  S   S207      1.0  0.45425  0.03573  0.50175  1.0000
  C   C884      1.0  0.22791  0.09226  0.77147  1.0000
  C   C885      1.0  0.38937  0.04145  0.55807  1.0000
  C   C886      1.0  0.35018  0.19046  0.53076  1.0000
  C   C887      1.0  0.41019  0.04676  0.61453  1.0000
  H   H1530     1.0  0.36010  0.99102  0.61164  1.0000
  C   C888      1.0  0.23341  0.09797  0.74019  1.0000
  H   H1531     1.0  0.23830  0.18005  0.53989  1.0000
  C   C889      1.0  0.33792  0.15783  0.83340  1.0000
  C   C890      1.0  0.44971  0.29714  0.72027  1.0000
  H   H1532     1.0  0.24178  0.09374  0.72790  1.0000
  C   C891      1.0  0.28919  0.08023  0.93049  1.0000
  C   C892      1.0  0.30463  0.08086  0.93481  1.0000
  C   C893      1.0  0.31529  0.09295  0.95519  1.0000
  H   H1533     1.0  0.38183  0.04173  0.57948  1.0000
  H   H1534     1.0  0.23223  0.11302  0.70024  1.0000
  C   C894      1.0  0.28459  0.09206  0.94620  1.0000
  H   H1535     1.0  0.30827  0.07176  0.92273  1.0000
  H   H1536     1.0  0.29893  0.19034  0.55578  1.0000
  H   H1537     1.0  0.38246  0.01919  0.60543  1.0000
  H   H1538     1.0  0.43151  0.04660  0.63717  1.0000
  H   H1539     1.0  0.45621  0.14107  0.51080  1.0000
  H   H1540     1.0  0.45387  0.01323  0.61691  1.0000
  H   H1541     1.0  0.40237  0.03752  0.63177  1.0000
  H   H1542     1.0  0.39845  0.05433  0.55611  1.0000
  H   H1543     1.0  0.32950  0.15420  0.98804  1.0000
  C   C895      1.0  0.26206  0.05629  0.50897  1.0000
  H   H1544     1.0  0.31373  0.17270  0.62519  1.0000
  H   H1545     1.0  0.34503  0.17552  0.79438  1.0000
  H   H1546     1.0  0.40355  0.07531  0.98458  1.0000
  S   S208      1.0  0.22539  0.09958  0.94154  1.0000
  H   H1547     1.0  0.29377  0.11004  0.49922  1.0000
  C   C896      1.0  0.43205  0.13843  0.98289  1.0000
  C   C897      1.0  0.44641  0.99393  0.67500  1.0000
  H   H1548     1.0  0.31056  0.22681  0.53597  1.0000
  H   H1549     1.0  0.35488  0.19599  0.58181  1.0000
  H   H1550     1.0  0.43803  0.09614  0.94545  1.0000
  H   H1551     1.0  0.40400  0.98690  0.63801  1.0000
  C   C898      1.0  0.40597  0.09185  0.51488  1.0000
  H   H1552     1.0  0.23740  0.19902  0.52573  1.0000
  C   C899      1.0  0.41226  0.03831  0.58219  1.0000
  H   H1553     1.0  0.21404  0.07547  0.99362  1.0000
  C   C900      1.0  0.32248  0.17785  0.57521  1.0000
  H   H1554     1.0  0.41802  0.02967  0.58854  1.0000
  H   H1555     1.0  0.38729  0.04260  0.50545  1.0000
  C   C901      1.0  0.34844  0.19950  0.56262  1.0000
  H   H1556     1.0  0.42995  0.11637  0.91234  1.0000
  H   H1557     1.0  0.33079  0.14700  0.81832  1.0000
  N   N49       1.0  0.37384  0.15996  0.72556  1.0000
  C   C902      1.0  0.39043  0.17314  0.72412  1.0000
  C   C903      1.0  0.37025  0.14988  0.69421  1.0000
  C   C904      1.0  0.36234  0.16858  0.72896  1.0000
  C   C905      1.0  0.37129  0.14898  0.75454  1.0000
  C   C906      1.0  0.38295  0.14017  0.75809  1.0000
  C   C907      1.0  0.39555  0.18522  0.75354  1.0000
  C   C908      1.0  0.34440  0.15718  0.72754  1.0000
  C   C909      1.0  0.38430  0.14757  0.67574  1.0000
  C   C910      1.0  0.37846  0.13553  0.64702  1.0000
  C   C911      1.0  0.37984  0.13069  0.78991  1.0000
  C   C912      1.0  0.41290  0.19703  0.75027  1.0000
  C   C913      1.0  0.33408  0.16718  0.72276  1.0000
  H   H1558     1.0  0.39181  0.18078  0.70220  1.0000
  H   H1559     1.0  0.39946  0.16762  0.72102  1.0000
  H   H1560     1.0  0.36093  0.13734  0.69834  1.0000
  H   H1561     1.0  0.36522  0.15577  0.67614  1.0000
  H   H1562     1.0  0.36499  0.17816  0.71016  1.0000
  H   H1563     1.0  0.36389  0.17547  0.75239  1.0000
  H   H1564     1.0  0.37152  0.15610  0.77737  1.0000
  H   H1565     1.0  0.35922  0.13901  0.75406  1.0000
  H   H1566     1.0  0.39545  0.14910  0.75829  1.0000
  H   H1567     1.0  0.38132  0.13103  0.73808  1.0000
  H   H1568     1.0  0.38843  0.19304  0.75531  1.0000
  H   H1569     1.0  0.39428  0.17834  0.77633  1.0000
  H   H1570     1.0  0.34058  0.15033  0.75057  1.0000
  H   H1571     1.0  0.34174  0.14798  0.70740  1.0000
  H   H1572     1.0  0.39250  0.15960  0.66577  1.0000
  H   H1573     1.0  0.39117  0.14283  0.69159  1.0000
  H   H1574     1.0  0.37178  0.14002  0.62995  1.0000
  H   H1575     1.0  0.38875  0.13452  0.63361  1.0000
  H   H1576     1.0  0.37067  0.12301  0.65547  1.0000
  H   H1577     1.0  0.36753  0.12123  0.79092  1.0000
  H   H1578     1.0  0.38819  0.12428  0.79178  1.0000
  H   H1579     1.0  0.39182  0.01786  0.51546  1.0000
  H   H1580     1.0  0.41611  0.20575  0.77134  1.0000
  H   H1581     1.0  0.42083  0.19006  0.74965  1.0000
  H   H1582     1.0  0.41482  0.20440  0.72785  1.0000
  H   H1583     1.0  0.33672  0.17330  0.69886  1.0000
  H   H1584     1.0  0.32135  0.15880  0.72343  1.0000
  H   H1585     1.0  0.33610  0.17678  0.74200  1.0000
  H   H1586     1.0  0.40433  0.12447  0.95061  1.0000
  C   C914      1.0  0.30874  0.17124  0.60052  1.0000
  H   H1587     1.0  0.29007  0.09700  0.86592  1.0000
  C   C915      1.0  0.29894  0.15281  0.59506  1.0000
  H   H1588     1.0  0.32643  0.10683  0.88593  1.0000
  C   C916      1.0  0.28976  0.10771  0.85235  1.0000
  H   H1589     1.0  0.36324  0.00819  0.56268  1.0000
  H   H1590     1.0  0.33776  0.19787  0.62453  1.0000
  H   H1591     1.0  0.36858  0.18703  0.50078  1.0000
  H   H1592     1.0  0.30668  0.20819  0.58265  1.0000
  H   H1593     1.0  0.35529  0.22578  0.60472  1.0000
  C   C917      1.0  0.30629  0.12149  0.85066  1.0000
  H   H1594     1.0  0.39379  0.00778  0.59222  1.0000
  H   H1595     1.0  0.29160  0.11318  0.97883  1.0000
  N   N50       1.0  0.39732  0.02934  0.56330  1.0000
  N   N51       1.0  0.33168  0.19641  0.57401  1.0000
  Fe  Fe96      1.0  0.22665  0.07731  0.91384  1.0000
  H   H1596     1.0  0.41886  0.10697  0.94767  1.0000
  H   H1597     1.0  0.35261  0.14211  0.87967  1.0000
  C   C918      1.0  0.32881  0.16320  0.97020  1.0000
  H   H1598     1.0  0.32023  0.16377  0.92280  1.0000
  H   H1599     1.0  0.36097  0.04655  0.54861  1.0000
  H   H1600     1.0  0.33981  0.11781  0.91752  1.0000
  H   H1601     1.0  0.40694  0.11480  0.87944  1.0000
  H   H1602     1.0  0.42803  0.98051  0.74582  1.0000
  S   S209      1.0  0.39611  0.14780  0.99118  1.0000
  C   C919      1.0  0.33134  0.15658  0.86861  1.0000
  C   C920      1.0  0.42613  0.05559  0.63102  1.0000
  C   C921      1.0  0.34025  0.13322  0.87557  1.0000
  C   C922      1.0  0.21623  0.10517  0.54847  1.0000
  S   S210      1.0  0.23340  0.13906  0.55184  1.0000
  H   H1603     1.0  0.33241  0.21736  0.54605  1.0000
  C   C923      1.0  0.41160  0.12520  0.92842  1.0000
  C   C924      1.0  0.33806  0.17346  0.81729  1.0000
  H   H1604     1.0  0.31769  0.17292  0.55089  1.0000
  Fe  Fe97      1.0  0.35003  0.12654  0.99680  1.0000
  S   S211      1.0  0.45309  0.04515  0.57800  1.0000
  Fe  Fe98      1.0  0.22129  0.14306  0.67683  1.0000
  H   H1605     1.0  0.34373  0.18456  0.83305  1.0000
  C   C925      1.0  0.35067  0.11020  0.87735  1.0000
  C   C926      1.0  0.34175  0.22937  0.64480  1.0000
  C   C927      1.0  0.34259  0.22297  0.61035  1.0000
  C   C928      1.0  0.45649  0.01973  0.64075  1.0000
  H   H1606     1.0  0.31434  0.11606  0.83936  1.0000
  C   C929      1.0  0.33213  0.14579  0.92229  1.0000
  C   C930      1.0  0.44569  0.11954  0.97353  1.0000
  H   H1607     1.0  0.33050  0.17146  0.58117  1.0000
  C   C931      1.0  0.21918  0.22211  0.69632  1.0000
  H   H1608     1.0  0.29029  0.21238  0.54005  1.0000
  H   H1609     1.0  0.35037  0.15864  0.83355  1.0000
  H   H1610     1.0  0.35527  0.21291  0.55841  1.0000
  H   H1611     1.0  0.32378  0.19814  0.52577  1.0000
  Fe  Fe99      1.0  0.45371  0.05765  0.53038  1.0000
  H   H1612     1.0  0.37089  0.02614  0.52370  1.0000
  H   H1613     1.0  0.22725  0.01277  0.76254  1.0000
  H   H1614     1.0  0.42696  0.14679  0.97229  1.0000
  H   H1615     1.0  0.34920  0.09842  0.88929  1.0000
  C   C932      1.0  0.32170  0.15439  0.93857  1.0000
  H   H1616     1.0  0.32017  0.15889  0.86807  1.0000
  H   H1617     1.0  0.42438  0.06173  0.65377  1.0000
  N   N52       1.0  0.32875  0.14090  0.88707  1.0000
  H   H1618     1.0  0.41652  0.97917  0.71035  1.0000
  C   C933      1.0  0.21691  0.09764  0.78696  1.0000
  C   C934      1.0  0.33829  0.11652  0.89101  1.0000
  H   H1619     1.0  0.30942  0.11844  0.90194  1.0000
  C   C935      1.0  0.22390  0.10158  0.98408  1.0000
  H   H1620     1.0  0.30566  0.13128  0.83477  1.0000
  H   H1621     1.0  0.24303  0.11057  0.59796  1.0000
  H   H1622     1.0  0.30660  0.14557  0.59615  1.0000
  H   H1623     1.0  0.32070  0.20200  0.61774  1.0000
  C   C936      1.0  0.33264  0.20409  0.60748  1.0000
  H   H1624     1.0  0.28120  0.11220  0.86463  1.0000
  H   H1625     1.0  0.32578  0.17219  0.81194  1.0000
  H   H1626     1.0  0.34625  0.22283  0.66239  1.0000
  C   C937      1.0  0.38683  0.01481  0.58317  1.0000
  H   H1627     1.0  0.45636  0.13638  0.91866  1.0000
  H   H1628     1.0  0.45391  0.09360  0.99258  1.0000
  H   H1629     1.0  0.21776  0.27369  0.69188  1.0000
  H   H1630     1.0  0.30971  0.14497  0.94431  1.0000
  H   H1631     1.0  0.39079  0.11877  0.89863  1.0000
  C   C938      1.0  0.45741  0.98923  0.72679  1.0000
  H   H1632     1.0  0.30062  0.17790  0.60011  1.0000
  H   H1633     1.0  0.25835  0.11593  0.62791  1.0000
  H   H1634     1.0  0.30351  0.13478  0.89289  1.0000
  H   H1635     1.0  0.32937  0.22761  0.65151  1.0000
  H   H1636     1.0  0.37162  0.98055  0.59183  1.0000
  C   C939      1.0  0.42183  0.99160  0.60005  1.0000
  H   H1637     1.0  0.38714  0.29773  0.81057  1.0000
  H   H1638     1.0  0.33950  0.13077  0.84911  1.0000
  C   C940      1.0  0.37188  0.00234  0.56651  1.0000
  H   H1639     1.0  0.34007  0.16764  0.88128  1.0000
  N   N53       1.0  0.26764  0.16137  0.77379  1.0000
  C   C941      1.0  0.26552  0.15208  0.74183  1.0000
  C   C942      1.0  0.25540  0.16905  0.77689  1.0000
  C   C943      1.0  0.28378  0.17542  0.77289  1.0000
  C   C944      1.0  0.26676  0.15061  0.80257  1.0000
  C   C945      1.0  0.25583  0.13195  0.79972  1.0000
  C   C946      1.0  0.27903  0.14617  0.73199  1.0000
  C   C947      1.0  0.28776  0.18760  0.80239  1.0000
  C   C948      1.0  0.23782  0.15700  0.77701  1.0000
  H   H1640     1.0  0.44603  0.02223  0.64956  1.0000
  C   C949      1.0  0.25293  0.12368  0.83277  1.0000
  C   C950      1.0  0.27381  0.13265  0.70574  1.0000
  C   C951      1.0  0.30527  0.19915  0.80218  1.0000
  H   H1641     1.0  0.26451  0.15999  0.72189  1.0000
  H   H1642     1.0  0.25414  0.14117  0.74124  1.0000
  H   H1643     1.0  0.25684  0.17626  0.79991  1.0000
  H   H1644     1.0  0.25714  0.17802  0.75691  1.0000
  H   H1645     1.0  0.28513  0.18291  0.75070  1.0000
  H   H1646     1.0  0.29335  0.17050  0.77122  1.0000
  H   H1647     1.0  0.27872  0.15084  0.80823  1.0000
  H   H1648     1.0  0.26302  0.15577  0.82471  1.0000
  H   H1649     1.0  0.26140  0.12531  0.78362  1.0000
  H   H1650     1.0  0.24415  0.12991  0.78952  1.0000
  H   H1651     1.0  0.28932  0.15674  0.72212  1.0000
  H   H1652     1.0  0.28316  0.14134  0.75304  1.0000
  H   H1653     1.0  0.28511  0.18085  0.82561  1.0000
  H   H1654     1.0  0.28083  0.19560  0.80162  1.0000
  H   H1655     1.0  0.23504  0.14914  0.75490  1.0000
  H   H1656     1.0  0.23502  0.14913  0.79878  1.0000
  H   H1657     1.0  0.41597  0.13814  0.92023  1.0000
  H   H1658     1.0  0.23594  0.02799  0.79421  1.0000
  H   H1659     1.0  0.34088  0.17276  0.96579  1.0000
  H   H1660     1.0  0.24610  0.12891  0.84902  1.0000
  H   H1661     1.0  0.24590  0.11021  0.82978  1.0000
  H   H1662     1.0  0.26432  0.12536  0.84424  1.0000
  H   H1663     1.0  0.28403  0.12949  0.69789  1.0000
  H   H1664     1.0  0.26428  0.12132  0.71520  1.0000
  H   H1665     1.0  0.26940  0.13696  0.68431  1.0000
  H   H1666     1.0  0.30822  0.20680  0.78009  1.0000
  H   H1667     1.0  0.30779  0.20763  0.82358  1.0000
  H   H1668     1.0  0.31303  0.19203  0.80300  1.0000
  N   N54       1.0  0.27017  0.10331  0.52037  1.0000
  C   C952      1.0  0.26270  0.08481  0.52511  1.0000
  C   C953      1.0  0.26274  0.11152  0.54442  1.0000
  H   H1669     1.0  0.42299  0.01840  0.54321  1.0000
  C   C954      1.0  0.28805  0.11035  0.52318  1.0000
  C   C955      1.0  0.29544  0.10175  0.54677  1.0000
  H   H1670     1.0  0.34487  0.15405  0.92501  1.0000
  C   C956      1.0  0.26535  0.10947  0.58068  1.0000
  C   C957      1.0  0.25597  0.11706  0.60199  1.0000
  C   C958      1.0  0.31304  0.11216  0.55185  1.0000
  H   H1671     1.0  0.33817  0.23004  0.59390  1.0000
  H   H1672     1.0  0.26579  0.08132  0.54886  1.0000
  H   H1673     1.0  0.26741  0.12513  0.54088  1.0000
  H   H1674     1.0  0.24970  0.10695  0.54041  1.0000
  C   C959      1.0  0.42513  0.11915  0.93575  1.0000
  C   C960      1.0  0.31178  0.12881  0.88478  1.0000
  H   H1675     1.0  0.29463  0.08959  0.53672  1.0000
  H   H1676     1.0  0.28949  0.09944  0.57079  1.0000
  H   H1677     1.0  0.29238  0.12373  0.53001  1.0000
  H   H1678     1.0  0.33034  0.13487  0.93734  1.0000
  Fe  Fe100     1.0  0.22390  0.17403  0.64016  1.0000
  H   H1679     1.0  0.26148  0.09630  0.58741  1.0000
  H   H1680     1.0  0.27803  0.11618  0.58662  1.0000
  H   H1681     1.0  0.25954  0.13040  0.59650  1.0000
  H   H1682     1.0  0.42106  0.04806  0.56696  1.0000
  H   H1683     1.0  0.23325  0.12825  0.98261  1.0000
  H   H1684     1.0  0.31957  0.11440  0.52829  1.0000
  H   H1685     1.0  0.31471  0.12424  0.56365  1.0000
  H   H1686     1.0  0.31823  0.10545  0.56756  1.0000
  H   H1687     1.0  0.42324  0.10380  0.58807  1.0000
  H   H1688     1.0  0.34921  0.24281  0.64649  1.0000
  S   S212      1.0  0.36283  0.15357  0.98680  1.0000
  H   H1689     1.0  0.37146  0.30534  0.80860  1.0000
  H   H1690     1.0  0.30294  0.20898  0.50894  1.0000
  H   H1691     1.0  0.38170  0.13931  0.81102  1.0000
  H   H1692     1.0  0.43939  0.14885  0.89726  1.0000
  H   H1693     1.0  0.40998  0.03501  0.51749  1.0000
  H   H1694     1.0  0.36334  0.04885  0.50531  1.0000
  C   C961      1.0  0.21480  0.17807  0.52563  1.0000
  H   H1695     1.0  0.22829  0.17376  0.80106  1.0000
  H   H1696     1.0  0.21645  0.26047  0.72596  1.0000
  H   H1697     1.0  0.43445  0.06522  0.61498  1.0000
  C   C962      1.0  0.30758  0.20332  0.55800  1.0000
  H   H1698     1.0  0.24908  0.05062  0.51396  1.0000
  C   C963      1.0  0.22672  0.16638  0.77823  1.0000
  Fe  Fe101     1.0  0.45566  0.02434  0.54875  1.0000
  C   C964      1.0  0.41103  0.01197  0.53284  1.0000
  H   H1699     1.0  0.45957  0.98545  0.91050  1.0000
  C   C965      1.0  0.22802  0.10892  0.72445  1.0000
  C   C966      1.0  0.43541  0.14771  0.50949  1.0000
  H   H1700     1.0  0.32702  0.09304  0.95887  1.0000
  H   H1701     1.0  0.44846  0.30032  0.74612  1.0000
  H   H1702     1.0  0.28963  0.14835  0.61431  1.0000
  H   H1703     1.0  0.45421  0.15866  0.99801  1.0000
  C   C967      1.0  0.40218  0.02394  0.53122  1.0000
  C   C968      1.0  0.22550  0.11958  0.53215  1.0000
  C   C969      1.0  0.32452  0.20419  0.54998  1.0000
  H   H1704     1.0  0.43479  0.13550  0.57145  1.0000
  H   H1705     1.0  0.40507  0.05619  0.61046  1.0000
  H   H1706     1.0  0.43983  0.98787  0.65288  1.0000
  H   H1707     1.0  0.37778  0.06336  0.53158  1.0000
  C   C970      1.0  0.38253  0.30682  0.82130  1.0000
  H   H1708     1.0  0.29303  0.15067  0.57121  1.0000
  S   S213      1.0  0.43523  0.06645  0.50943  1.0000
  C   C971      1.0  0.31058  0.10451  0.97146  1.0000
  C   C972      1.0  0.30260  0.21351  0.53419  1.0000
  H   H1709     1.0  0.39499  0.10126  0.91098  1.0000
  H   H1710     1.0  0.43885  0.98915  0.99501  1.0000
  H   H1711     1.0  0.21589  0.04190  0.79022  1.0000
  H   H1712     1.0  0.44092  0.16157  0.93327  1.0000
  C   C973      1.0  0.37932  0.03908  0.52715  1.0000
  C   C974      1.0  0.41400  0.08162  0.50455  1.0000
  H   H1713     1.0  0.21484  0.23267  0.65296  1.0000
  H   H1714     1.0  0.23118  0.22358  0.68717  1.0000
  H   H1715     1.0  0.22217  0.24702  0.68575  1.0000
  H   H1716     1.0  0.24949  0.08053  0.52565  1.0000
  H   H1717     1.0  0.22976  0.19170  0.56540  1.0000
  C   C975      1.0  0.46102  0.00938  0.66494  1.0000
  H   H1718     1.0  0.42451  0.14519  0.52481  1.0000
  C   C976      1.0  0.21676  0.11402  0.73957  1.0000
  Fe  Fe102     1.0  0.21580  0.04095  0.88874  1.0000
  H   H1719     1.0  0.45309  0.99901  0.73500  1.0000
  C   C977      1.0  0.22837  0.11753  0.99793  1.0000
  Fe  Fe103     1.0  0.34916  0.11145  0.50343  1.0000
  H   H1720     1.0  0.22499  0.28961  0.74295  1.0000
  C   C978      1.0  0.41047  0.98156  0.62230  1.0000
  H   H1721     1.0  0.43762  0.12368  0.51674  1.0000
  H   H1722     1.0  0.37983  0.30397  0.84736  1.0000
  H   H1723     1.0  0.43799  0.29348  0.70850  1.0000
  H   H1724     1.0  0.45383  0.97985  0.74639  1.0000
  H   H1725     1.0  0.37487  0.20679  0.52157  1.0000
  C   C979      1.0  0.36365  0.98724  0.58782  1.0000
  C   C980      1.0  0.46223  0.31185  0.70304  1.0000
  H   H1726     1.0  0.45242  0.13105  0.56705  1.0000
  C   C981      1.0  0.44925  0.10657  0.95183  1.0000
  H   H1727     1.0  0.45330  0.28636  0.71932  1.0000
  H   H1728     1.0  0.34584  0.19514  0.50978  1.0000
  C   C982      1.0  0.44643  0.13912  0.55862  1.0000
  C   C983      1.0  0.44705  0.15528  0.91785  1.0000
  N   N55       1.0  0.43851  0.13022  0.95689  1.0000
  H   H1729     1.0  0.21353  0.99693  0.86105  1.0000
  C   C984      1.0  0.21377  0.23441  0.67953  1.0000
  C   C985      1.0  0.44418  0.13702  0.52197  1.0000
  C   C986      1.0  0.45152  0.14273  0.93701  1.0000
  H   H1730     1.0  0.21695  0.17494  0.50035  1.0000
  C   C987      1.0  0.36980  0.05015  0.52835  1.0000
  H   H1731     1.0  0.44346  0.16064  0.51516  1.0000
  C   C988      1.0  0.41330  0.00565  0.49904  1.0000
  H   H1732     1.0  0.42194  0.12886  0.99578  1.0000
  H   H1733     1.0  0.21422  0.15736  0.77723  1.0000
  H   H1734     1.0  0.43301  0.17818  0.50210  1.0000
  H   H1735     1.0  0.43775  0.11252  0.99350  1.0000
  H   H1736     1.0  0.42036  0.99780  0.50071  1.0000
  H   H1737     1.0  0.45701  0.12740  0.98536  1.0000
  H   H1738     1.0  0.45551  0.11197  0.92901  1.0000
  H   H1739     1.0  0.45823  0.17734  0.88906  1.0000
  C   C989      1.0  0.45960  0.09927  0.96941  1.0000
  H   H1740     1.0  0.46134  0.08950  0.95402  1.0000
  H   H1741     1.0  0.46181  0.14980  0.95251  1.0000
  C   C990      1.0  0.46181  0.16877  0.90337  1.0000
  H   H1742     1.0  0.21345  0.15615  0.55093  1.0000
  C   C991      1.0  0.22896  0.11863  0.49904  1.0000
  C   C992      1.0  0.26694  0.07427  0.49875  1.0000
  Fe  Fe104     1.0  0.45001  0.36661  0.29820  1.0000
  S   S214      1.0  0.44766  0.38507  0.26337  1.0000
  S   S215      1.0  0.43010  0.34051  0.30373  1.0000
  Fe  Fe105     1.0  0.45320  0.40309  0.30525  1.0000
  S   S216      1.0  0.44189  0.42203  0.30918  1.0000
  N   N56       1.0  0.46047  0.42859  0.45141  1.0000
  H   H1743     1.0  0.30960  0.44204  0.00342  1.0000
  Fe  Fe106     1.0  0.24420  0.39277  0.48181  1.0000
  C   C993      1.0  0.45055  0.42554  0.22250  1.0000
  C   C994      1.0  0.26547  0.32777  0.00163  1.0000
  H   H1744     1.0  0.28906  0.31543  0.05209  1.0000
  H   H1745     1.0  0.26778  0.36864  0.44876  1.0000
  H   H1746     1.0  0.44341  0.49229  0.05552  1.0000
  C   C995      1.0  0.42514  0.31929  0.29153  1.0000
  S   S217      1.0  0.23162  0.37138  0.44807  1.0000
  Fe  Fe107     1.0  0.36520  0.46068  0.43261  1.0000
  S   S218      1.0  0.38142  0.45820  0.47105  1.0000
  S   S219      1.0  0.33836  0.45568  0.43571  1.0000
  Fe  Fe108     1.0  0.39376  0.47747  0.38493  1.0000
  S   S220      1.0  0.41170  0.47612  0.41986  1.0000
  S   S221      1.0  0.39914  0.48542  0.33219  1.0000
  Fe  Fe109     1.0  0.39390  0.45050  0.42966  1.0000
  S   S222      1.0  0.40241  0.42942  0.43269  1.0000
  Fe  Fe110     1.0  0.39812  0.48404  0.45836  1.0000
  H   H1747     1.0  0.45637  0.59041  0.31437  1.0000
  S   S223      1.0  0.37665  0.45112  0.39232  1.0000
  S   S224      1.0  0.38125  0.48728  0.42240  1.0000
  C   C996      1.0  0.44689  0.59213  0.30046  1.0000
  H   H1748     1.0  0.23057  0.38463  0.28828  1.0000
  H   H1749     1.0  0.31213  0.42196  0.31516  1.0000
  C   C997      1.0  0.38868  0.53205  0.47468  1.0000
  S   S225      1.0  0.43460  0.53841  0.11153  1.0000
  C   C998      1.0  0.45795  0.41049  0.45204  1.0000
  C   C999      1.0  0.42403  0.49684  0.03475  1.0000
  C   C1000     1.0  0.43643  0.49987  0.05666  1.0000
  C   C1001     1.0  0.43990  0.51268  0.08006  1.0000
  C   C1002     1.0  0.43097  0.52255  0.08179  1.0000
  C   C1003     1.0  0.41865  0.51962  0.05966  1.0000
  C   C1004     1.0  0.41524  0.50687  0.03610  1.0000
  H   H1750     1.0  0.34776  0.48484  0.47662  1.0000
  H   H1751     1.0  0.44947  0.51493  0.09682  1.0000
  H   H1752     1.0  0.41177  0.52731  0.06073  1.0000
  H   H1753     1.0  0.23578  0.34034  0.02997  1.0000
  C   C1005     1.0  0.41468  0.50311  0.31646  1.0000
  C   C1006     1.0  0.42539  0.51519  0.33646  1.0000
  C   C1007     1.0  0.43762  0.52897  0.32268  1.0000
  C   C1008     1.0  0.43929  0.53075  0.28887  1.0000
  C   C1009     1.0  0.42857  0.51873  0.26892  1.0000
  C   C1010     1.0  0.41632  0.50501  0.28267  1.0000
  H   H1754     1.0  0.42420  0.51394  0.36250  1.0000
  C   C1011     1.0  0.45158  0.59548  0.26415  1.0000
  H   H1755     1.0  0.42956  0.52016  0.24292  1.0000
  H   H1756     1.0  0.40800  0.49581  0.26704  1.0000
  C   C1012     1.0  0.28999  0.41692  0.47203  1.0000
  C   C1013     1.0  0.30427  0.41498  0.47859  1.0000
  C   C1014     1.0  0.31912  0.42650  0.46745  1.0000
  C   C1015     1.0  0.31995  0.44019  0.44940  1.0000
  H   H1757     1.0  0.32535  0.42168  0.34664  1.0000
  C   C1016     1.0  0.29083  0.43062  0.45401  1.0000
  H   H1758     1.0  0.28398  0.38766  0.06231  1.0000
  H   H1759     1.0  0.32992  0.42480  0.47295  1.0000
  C   C1017     1.0  0.30564  0.44202  0.44256  1.0000
  H   H1760     1.0  0.35241  0.49612  0.03218  1.0000
  C   C1018     1.0  0.42979  0.42279  0.34260  1.0000
  C   C1019     1.0  0.42410  0.43557  0.34434  1.0000
  C   C1020     1.0  0.41530  0.43734  0.37147  1.0000
  C   C1021     1.0  0.41209  0.42632  0.39712  1.0000
  C   C1022     1.0  0.41717  0.41306  0.39480  1.0000
  C   C1023     1.0  0.42608  0.41134  0.36767  1.0000
  H   H1761     1.0  0.42654  0.44416  0.32464  1.0000
  H   H1762     1.0  0.41105  0.44731  0.37257  1.0000
  H   H1763     1.0  0.41430  0.40418  0.41412  1.0000
  H   H1764     1.0  0.43013  0.40123  0.36623  1.0000
  C   C1024     1.0  0.28116  0.38229  0.03752  1.0000
  H   H1765     1.0  0.21454  0.31882  0.06335  1.0000
  H   H1766     1.0  0.42994  0.49624  0.21235  1.0000
  H   H1767     1.0  0.44604  0.32327  0.26234  1.0000
  H   H1768     1.0  0.43715  0.48211  0.19131  1.0000
  N   N57       1.0  0.37229  0.46696  0.08082  1.0000
  C   C1025     1.0  0.36096  0.45496  0.10438  1.0000
  C   C1026     1.0  0.38380  0.48190  0.09874  1.0000
  C   C1027     1.0  0.36244  0.47279  0.05897  1.0000
  C   C1028     1.0  0.38107  0.45888  0.05974  1.0000
  C   C1029     1.0  0.44931  0.47969  0.32091  1.0000
  C   C1030     1.0  0.34824  0.43914  0.08926  1.0000
  H   H1769     1.0  0.41477  0.41605  0.49099  1.0000
  C   C1031     1.0  0.38935  0.47907  0.13259  1.0000
  C   C1032     1.0  0.40344  0.49429  0.14417  1.0000
  C   C1033     1.0  0.41860  0.33757  0.21085  1.0000
  C   C1034     1.0  0.33784  0.42783  0.11556  1.0000
  H   H1770     1.0  0.43857  0.41550  0.22120  1.0000
  H   H1771     1.0  0.35462  0.46141  0.11912  1.0000
  H   H1772     1.0  0.36734  0.45063  0.12225  1.0000
  H   H1773     1.0  0.39455  0.48820  0.08342  1.0000
  H   H1774     1.0  0.37845  0.49128  0.10335  1.0000
  H   H1775     1.0  0.35397  0.47657  0.07371  1.0000
  H   H1776     1.0  0.44958  0.55443  0.00933  1.0000
  C   C1035     1.0  0.37173  0.48743  0.03640  1.0000
  H   H1777     1.0  0.45008  0.43495  0.24056  1.0000
  H   H1778     1.0  0.22866  0.31261  0.08376  1.0000
  H   H1779     1.0  0.40211  0.46130  0.08700  1.0000
  H   H1780     1.0  0.34023  0.44226  0.07325  1.0000
  C   C1036     1.0  0.39133  0.45123  0.07749  1.0000
  H   H1781     1.0  0.38935  0.46800  0.04280  1.0000
  H   H1782     1.0  0.43776  0.47585  0.47585  1.0000
  H   H1783     1.0  0.37952  0.47675  0.15061  1.0000
  H   H1784     1.0  0.39296  0.46837  0.13279  1.0000
  H   H1785     1.0  0.41401  0.49629  0.12841  1.0000
  H   H1786     1.0  0.40061  0.50557  0.14388  1.0000
  H   H1787     1.0  0.40642  0.49245  0.16933  1.0000
  H   H1788     1.0  0.37950  0.48396  0.01940  1.0000
  H   H1789     1.0  0.36518  0.51534  0.46302  1.0000
  H   H1790     1.0  0.44581  0.53828  0.33832  1.0000
  H   H1791     1.0  0.32879  0.41670  0.10408  1.0000
  H   H1792     1.0  0.34512  0.42371  0.13177  1.0000
  H   H1793     1.0  0.33160  0.43436  0.13016  1.0000
  H   H1794     1.0  0.44442  0.60256  0.31167  1.0000
  H   H1795     1.0  0.24490  0.40341  0.33174  1.0000
  S   S226      1.0  0.41094  0.50579  0.49273  1.0000
  H   H1796     1.0  0.22519  0.37423  0.32646  1.0000
  H   H1797     1.0  0.45260  0.62563  0.25935  1.0000
  Fe  Fe111     1.0  0.21782  0.38631  0.01448  1.0000
  H   H1798     1.0  0.35387  0.43190  0.07503  1.0000
  H   H1799     1.0  0.44637  0.44337  0.46095  1.0000
  H   H1800     1.0  0.44864  0.46573  0.49665  1.0000
  H   H1801     1.0  0.43979  0.47009  0.24334  1.0000
  C   C1037     1.0  0.26550  0.35625  0.00512  1.0000
  H   H1802     1.0  0.30157  0.42431  0.37037  1.0000
  H   H1803     1.0  0.44127  0.59681  0.25251  1.0000
  H   H1804     1.0  0.43209  0.48365  0.26491  1.0000
  H   H1805     1.0  0.28007  0.43247  0.44902  1.0000
  S   S227      1.0  0.27153  0.40152  0.48570  1.0000
  H   H1806     1.0  0.45912  0.46850  0.26946  1.0000
  H   H1807     1.0  0.27434  0.35758  0.05524  1.0000
  Fe  Fe112     1.0  0.46228  0.55030  0.21934  1.0000
  H   H1808     1.0  0.45317  0.50434  0.30478  1.0000
  H   H1809     1.0  0.25838  0.36452  0.05134  1.0000
  H   H1810     1.0  0.27991  0.35875  0.42989  1.0000
  C   C1038     1.0  0.23186  0.31439  0.03118  1.0000
  C   C1039     1.0  0.36038  0.49226  0.01624  1.0000
  H   H1811     1.0  0.37633  0.49745  0.48670  1.0000
  Fe  Fe113     1.0  0.21525  0.35951  0.48956  1.0000
  H   H1812     1.0  0.41510  0.32072  0.17065  1.0000
  H   H1813     1.0  0.45547  0.62410  0.20529  1.0000
  H   H1814     1.0  0.26168  0.38978  0.41725  1.0000
  H   H1815     1.0  0.28881  0.38017  0.44264  1.0000
  H   H1816     1.0  0.38664  0.43003  0.04464  1.0000
  H   H1817     1.0  0.45605  0.54055  0.03084  1.0000
  H   H1818     1.0  0.26652  0.32423  0.05439  1.0000
  S   S228      1.0  0.45477  0.54826  0.27253  1.0000
  H   H1819     1.0  0.28512  0.37688  0.38273  1.0000
  C   C1040     1.0  0.45636  0.54628  0.00694  1.0000
  H   H1820     1.0  0.24243  0.43131  0.41433  1.0000
  C   C1041     1.0  0.27218  0.39221  0.40106  1.0000
  H   H1821     1.0  0.40446  0.43548  0.06788  1.0000
  C   C1042     1.0  0.24329  0.33288  0.03047  1.0000
  S   S229      1.0  0.45742  0.56645  0.18288  1.0000
  H   H1822     1.0  0.45816  0.37924  0.43723  1.0000
  C   C1043     1.0  0.43188  0.57647  0.30439  1.0000
  H   H1823     1.0  0.43666  0.47087  0.36624  1.0000
  H   H1824     1.0  0.25709  0.37580  0.34539  1.0000
  C   C1044     1.0  0.39694  0.44055  0.05456  1.0000
  S   S230      1.0  0.42021  0.48050  0.00605  1.0000
  H   H1825     1.0  0.23871  0.36963  0.29891  1.0000
  H   H1826     1.0  0.44661  0.40284  0.43990  1.0000
  H   H1827     1.0  0.40596  0.50493  0.01885  1.0000
  H   H1828     1.0  0.25064  0.43552  0.37395  1.0000
  C   C1045     1.0  0.43940  0.48259  0.24383  1.0000
  H   H1829     1.0  0.38475  0.44320  0.09762  1.0000
  C   C1046     1.0  0.27484  0.37574  0.39868  1.0000
  H   H1830     1.0  0.45589  0.47160  0.32478  1.0000
  H   H1831     1.0  0.44679  0.43835  0.18187  1.0000
  H   H1832     1.0  0.41859  0.47428  0.21356  1.0000
  H   H1833     1.0  0.26414  0.36562  0.38913  1.0000
  C   C1047     1.0  0.24904  0.39345  0.32428  1.0000
  C   C1048     1.0  0.25510  0.38703  0.35384  1.0000
  H   H1834     1.0  0.45359  0.47675  0.10173  1.0000
  C   C1049     1.0  0.26934  0.36432  0.03941  1.0000
  H   H1835     1.0  0.28219  0.40144  0.41447  1.0000
  C   C1050     1.0  0.27803  0.37055  0.43205  1.0000
  H   H1836     1.0  0.43540  0.42289  0.44749  1.0000
  H   H1837     1.0  0.38766  0.54235  0.46091  1.0000
  C   C1051     1.0  0.43080  0.48394  0.21335  1.0000
  S   S231      1.0  0.22833  0.40609  0.46844  1.0000
  H   H1838     1.0  0.45372  0.42507  0.40087  1.0000
  Fe  Fe114     1.0  0.45514  0.54588  0.14682  1.0000
  C   C1052     1.0  0.44314  0.48281  0.35411  1.0000
  C   C1053     1.0  0.45768  0.61280  0.19891  1.0000
  H   H1839     1.0  0.41790  0.33752  0.23773  1.0000
  H   H1840     1.0  0.43897  0.47265  0.30585  1.0000
  H   H1841     1.0  0.45391  0.50819  0.24869  1.0000
  H   H1842     1.0  0.42373  0.31569  0.20522  1.0000
  S   S232      1.0  0.45370  0.38437  0.34106  1.0000
  H   H1843     1.0  0.37270  0.44926  0.04364  1.0000
  C   C1054     1.0  0.44543  0.43041  0.46317  1.0000
  H   H1844     1.0  0.43378  0.56551  0.29414  1.0000
  H   H1845     1.0  0.42174  0.57774  0.29202  1.0000
  H   H1846     1.0  0.45515  0.42319  0.17202  1.0000
  H   H1847     1.0  0.26358  0.44158  0.40865  1.0000
  H   H1848     1.0  0.31353  0.40262  0.32628  1.0000
  H   H1849     1.0  0.35506  0.46255  0.04263  1.0000
  H   H1850     1.0  0.39448  0.52556  0.45871  1.0000
  S   S233      1.0  0.45787  0.52900  0.18455  1.0000
  H   H1851     1.0  0.45187  0.48658  0.14000  1.0000
  C   C1055     1.0  0.23504  0.37959  0.30859  1.0000
  H   H1852     1.0  0.43483  0.48918  0.35145  1.0000
  Fe  Fe115     1.0  0.21477  0.38371  0.43718  1.0000
  H   H1853     1.0  0.45180  0.45177  0.41073  1.0000
  H   H1854     1.0  0.44628  0.60193  0.20048  1.0000
  C   C1056     1.0  0.45612  0.49659  0.24553  1.0000
  H   H1855     1.0  0.37917  0.49862  0.05031  1.0000
  H   H1856     1.0  0.25556  0.41186  0.42271  1.0000
  N   N58       1.0  0.26988  0.39922  0.36946  1.0000
  C   C1057     1.0  0.28386  0.40208  0.34675  1.0000
  H   H1857     1.0  0.25849  0.39839  0.30554  1.0000
  C   C1058     1.0  0.26848  0.41564  0.37618  1.0000
  H   H1858     1.0  0.27913  0.42423  0.38898  1.0000
  H   H1859     1.0  0.43091  0.34554  0.20345  1.0000
  C   C1059     1.0  0.30053  0.41194  0.36116  1.0000
  C   C1060     1.0  0.25407  0.41507  0.39749  1.0000
  H   H1860     1.0  0.24514  0.38238  0.37186  1.0000
  H   H1861     1.0  0.24271  0.40588  0.38841  1.0000
  H   H1862     1.0  0.30305  0.40521  0.38139  1.0000
  C   C1061     1.0  0.31362  0.41467  0.33560  1.0000
  C   C1062     1.0  0.25267  0.43194  0.39859  1.0000
  H   H1863     1.0  0.28288  0.40897  0.32513  1.0000
  H   H1864     1.0  0.28382  0.39011  0.33697  1.0000
  H   H1865     1.0  0.29235  0.38307  0.02515  1.0000
  H   H1866     1.0  0.24914  0.33572  0.05432  1.0000
  H   H1867     1.0  0.26833  0.42192  0.35310  1.0000
  H   H1868     1.0  0.45646  0.40586  0.47714  1.0000
  H   H1869     1.0  0.45229  0.58406  0.25294  1.0000
  H   H1870     1.0  0.45431  0.61626  0.14809  1.0000
  H   H1871     1.0  0.35308  0.48172  0.00056  1.0000
  H   H1872     1.0  0.40411  0.44802  0.03421  1.0000
  H   H1873     1.0  0.42880  0.57425  0.33052  1.0000
  H   H1874     1.0  0.36724  0.50277  0.00041  1.0000
  C   C1063     1.0  0.28239  0.31507  0.02973  1.0000
  H   H1875     1.0  0.30602  0.45244  0.42844  1.0000
  C   C1064     1.0  0.43488  0.31420  0.27099  1.0000
  H   H1876     1.0  0.30384  0.40444  0.49238  1.0000
  C   C1065     1.0  0.45564  0.43331  0.18920  1.0000
  H   H1877     1.0  0.41038  0.34301  0.20153  1.0000
  H   H1878     1.0  0.39331  0.31555  0.14366  1.0000
  H   H1879     1.0  0.45726  0.45562  0.13607  1.0000
  H   H1880     1.0  0.45896  0.42009  0.23087  1.0000
  C   C1066     1.0  0.46020  0.48595  0.12051  1.0000
  H   H1881     1.0  0.46064  0.46666  0.17356  1.0000
  H   H1882     1.0  0.46256  0.44851  0.35695  1.0000
  H   H1883     1.0  0.31727  0.47600  0.46530  1.0000
  S   S234      1.0  0.23199  0.37027  0.00986  1.0000
  H   H1884     1.0  0.27597  0.38982  0.02408  1.0000
  C   C1067     1.0  0.37219  0.52007  0.48534  1.0000
  C   C1068     1.0  0.27449  0.32761  0.03281  1.0000
  C   C1069     1.0  0.41442  0.32001  0.19735  1.0000
  H   H1885     1.0  0.28408  0.33993  0.03682  1.0000
  H   H1886     1.0  0.46205  0.49748  0.22129  1.0000
  N   N59       1.0  0.25531  0.33790  0.00293  1.0000
  S   S235      1.0  0.21393  0.39648  0.06357  1.0000
  H   H1887     1.0  0.45306  0.49041  0.36991  1.0000
  C   C1070     1.0  0.46009  0.49625  0.30504  1.0000
  H   H1888     1.0  0.29084  0.31804  0.00880  1.0000
  H   H1889     1.0  0.34236  0.50110  0.49185  1.0000
  H   H1890     1.0  0.39626  0.53733  0.49604  1.0000
  C   C1071     1.0  0.31475  0.47722  0.49146  1.0000
  H   H1891     1.0  0.31281  0.48890  0.49554  1.0000
  H   H1892     1.0  0.38961  0.31460  0.20971  1.0000
  H   H1893     1.0  0.30371  0.46664  0.49831  1.0000
  H   H1894     1.0  0.22310  0.43354  0.99675  1.0000
  H   H1895     1.0  0.43222  0.36593  0.65913  1.0000
  S   S236      1.0  0.45359  0.35279  0.80849  1.0000
  H   H1896     1.0  0.37779  0.45994  0.54212  1.0000
  S   S237      1.0  0.43939  0.42458  0.78904  1.0000
  C   C1072     1.0  0.41652  0.35795  0.84132  1.0000
  H   H1897     1.0  0.42060  0.42328  0.53171  1.0000
  Fe  Fe116     1.0  0.24458  0.38616  0.96744  1.0000
  H   H1898     1.0  0.44395  0.48102  0.92381  1.0000
  Fe  Fe117     1.0  0.21313  0.35551  0.97490  1.0000
  H   H1899     1.0  0.37383  0.53366  0.61135  1.0000
  C   C1073     1.0  0.41182  0.38129  0.74898  1.0000
  H   H1900     1.0  0.43666  0.52544  0.98926  1.0000
  H   H1901     1.0  0.44865  0.43518  0.51530  1.0000
  H   H1902     1.0  0.22310  0.37416  0.67136  1.0000
  Fe  Fe118     1.0  0.36472  0.45216  0.95158  1.0000
  S   S238      1.0  0.38236  0.44369  0.97483  1.0000
  S   S239      1.0  0.34041  0.44658  0.97666  1.0000
  Fe  Fe119     1.0  0.38980  0.47250  0.90118  1.0000
  S   S240      1.0  0.40873  0.46517  0.92077  1.0000
  S   S241      1.0  0.39493  0.49088  0.86014  1.0000
  Fe  Fe120     1.0  0.38961  0.43987  0.92404  1.0000
  S   S242      1.0  0.39589  0.41774  0.91323  1.0000
  Fe  Fe121     1.0  0.40019  0.46979  0.96997  1.0000
  C   C1074     1.0  0.29231  0.42010  0.98118  1.0000
  S   S243      1.0  0.37089  0.44657  0.90055  1.0000
  S   S244      1.0  0.38229  0.47885  0.95036  1.0000
  H   H1903     1.0  0.44198  0.31848  0.82580  1.0000
  S   S245      1.0  0.22642  0.37006  0.93191  1.0000
  H   H1904     1.0  0.45733  0.50738  0.89484  1.0000
  H   H1905     1.0  0.42240  0.35146  0.82561  1.0000
  S   S246      1.0  0.44367  0.50890  0.62914  1.0000
  C   C1075     1.0  0.44857  0.53422  0.88840  1.0000
  C   C1076     1.0  0.41966  0.50630  0.53094  1.0000
  C   C1077     1.0  0.41821  0.49187  0.54702  1.0000
  C   C1078     1.0  0.42540  0.49293  0.57732  1.0000
  C   C1079     1.0  0.43413  0.50839  0.59186  1.0000
  C   C1080     1.0  0.43538  0.52281  0.57602  1.0000
  C   C1081     1.0  0.42818  0.52174  0.54572  1.0000
  H   H1906     1.0  0.40213  0.44153  0.64260  1.0000
  H   H1907     1.0  0.42432  0.48168  0.58937  1.0000
  H   H1908     1.0  0.43786  0.55069  0.86895  1.0000
  H   H1909     1.0  0.42929  0.53298  0.53357  1.0000
  C   C1082     1.0  0.41306  0.49857  0.83795  1.0000
  C   C1083     1.0  0.41574  0.51150  0.81608  1.0000
  C   C1084     1.0  0.43013  0.51821  0.79844  1.0000
  C   C1085     1.0  0.44196  0.51201  0.80247  1.0000
  C   C1086     1.0  0.43925  0.49898  0.82413  1.0000
  C   C1087     1.0  0.42486  0.49225  0.84172  1.0000
  H   H1910     1.0  0.40669  0.51648  0.81305  1.0000
  H   H1911     1.0  0.43218  0.52842  0.78224  1.0000
  H   H1912     1.0  0.44836  0.49412  0.82742  1.0000
  H   H1913     1.0  0.42290  0.48218  0.85817  1.0000
  C   C1088     1.0  0.28974  0.40702  0.95899  1.0000
  C   C1089     1.0  0.30296  0.40613  0.94191  1.0000
  C   C1090     1.0  0.31844  0.41816  0.94664  1.0000
  C   C1091     1.0  0.32102  0.43123  0.96887  1.0000
  H   H1914     1.0  0.44640  0.32251  0.68644  1.0000
  H   H1915     1.0  0.43691  0.36715  0.70143  1.0000
  H   H1916     1.0  0.38255  0.39198  0.85075  1.0000
  H   H1917     1.0  0.32839  0.41727  0.93316  1.0000
  H   H1918     1.0  0.43460  0.44324  0.91919  1.0000
  H   H1919     1.0  0.35841  0.51350  0.61730  1.0000
  C   C1092     1.0  0.42845  0.42345  0.82505  1.0000
  C   C1093     1.0  0.42074  0.43440  0.83014  1.0000
  C   C1094     1.0  0.41106  0.43303  0.85770  1.0000
  C   C1095     1.0  0.40898  0.42059  0.88009  1.0000
  C   C1096     1.0  0.41715  0.41001  0.87563  1.0000
  C   C1097     1.0  0.42692  0.41146  0.84818  1.0000
  H   H1920     1.0  0.42212  0.44386  0.81259  1.0000
  H   H1921     1.0  0.40485  0.44129  0.86116  1.0000
  H   H1922     1.0  0.41571  0.40053  0.89323  1.0000
  H   H1923     1.0  0.43286  0.40302  0.84448  1.0000
  C   C1098     1.0  0.43906  0.33479  0.79034  1.0000
  C   C1099     1.0  0.43074  0.33554  0.76274  1.0000
  C   C1100     1.0  0.43573  0.31924  0.80432  1.0000
  H   H1924     1.0  0.43295  0.34738  0.75194  1.0000
  S   S247      1.0  0.23173  0.40342  0.97471  1.0000
  C   C1101     1.0  0.45795  0.47681  0.74658  1.0000
  H   H1925     1.0  0.36814  0.35419  0.83942  1.0000
  H   H1926     1.0  0.39748  0.32626  0.79088  1.0000
  H   H1927     1.0  0.40875  0.35301  0.77995  1.0000
  C   C1102     1.0  0.39378  0.36609  0.84793  1.0000
  H   H1928     1.0  0.43678  0.34490  0.87187  1.0000
  C   C1103     1.0  0.43877  0.51084  0.92512  1.0000
  C   C1104     1.0  0.42396  0.52881  0.91874  1.0000
  H   H1929     1.0  0.43981  0.41336  0.50468  1.0000
  C   C1105     1.0  0.37324  0.48169  0.55795  1.0000
  H   H1930     1.0  0.41347  0.32155  0.72721  1.0000
  H   H1931     1.0  0.25960  0.36351  0.99296  1.0000
  H   H1932     1.0  0.28236  0.42102  0.99458  1.0000
  C   C1106     1.0  0.41305  0.52305  0.94897  1.0000
  C   C1107     1.0  0.39649  0.52260  0.94225  1.0000
  H   H1933     1.0  0.38492  0.49020  0.54857  1.0000
  C   C1108     1.0  0.44777  0.35348  0.67155  1.0000
  H   H1934     1.0  0.34721  0.49544  0.56976  1.0000
  H   H1935     1.0  0.43026  0.50251  0.90735  1.0000
  H   H1936     1.0  0.21558  0.36952  0.72997  1.0000
  H   H1937     1.0  0.42468  0.54158  0.91445  1.0000
  H   H1938     1.0  0.41761  0.52116  0.89756  1.0000
  H   H1939     1.0  0.46171  0.46738  0.75725  1.0000
  C   C1109     1.0  0.24555  0.33687  0.91058  1.0000
  H   H1940     1.0  0.41170  0.51048  0.95638  1.0000
  N   N60       1.0  0.44033  0.52850  0.92072  1.0000
  H   H1941     1.0  0.23201  0.39444  0.74495  1.0000
  C   C1110     1.0  0.41966  0.32085  0.74882  1.0000
  H   H1942     1.0  0.36329  0.45615  0.57471  1.0000
  S   S248      1.0  0.22881  0.37971  0.52471  1.0000
  H   H1943     1.0  0.41762  0.37384  0.73593  1.0000
  C   C1111     1.0  0.30783  0.43204  0.98616  1.0000
  H   H1944     1.0  0.25826  0.31474  0.99436  1.0000
  C   C1112     1.0  0.35978  0.47945  0.53387  1.0000
  H   H1945     1.0  0.38341  0.51033  0.52069  1.0000
  H   H1946     1.0  0.21406  0.44712  0.98177  1.0000
  C   C1113     1.0  0.22645  0.39779  0.76668  1.0000
  C   C1114     1.0  0.44897  0.53273  0.98141  1.0000
  H   H1947     1.0  0.37433  0.52867  0.55279  1.0000
  H   H1948     1.0  0.41877  0.39459  0.74407  1.0000
  C   C1115     1.0  0.40221  0.35974  0.79310  1.0000
  H   H1949     1.0  0.37061  0.48646  0.58154  1.0000
  C   C1116     1.0  0.38904  0.33750  0.83165  1.0000
  H   H1950     1.0  0.41743  0.43413  0.96757  1.0000
  H   H1951     1.0  0.45743  0.35623  0.71924  1.0000
  C   C1117     1.0  0.36875  0.51775  0.56853  1.0000
  H   H1952     1.0  0.39966  0.37795  0.73961  1.0000
  C   C1118     1.0  0.44984  0.54012  0.94714  1.0000
  H   H1953     1.0  0.43339  0.50602  0.94903  1.0000
  H   H1954     1.0  0.44637  0.55100  0.94962  1.0000
  H   H1955     1.0  0.46095  0.53480  0.88878  1.0000
  H   H1956     1.0  0.23688  0.34291  0.91305  1.0000
  C   C1119     1.0  0.44180  0.36747  0.67652  1.0000
  H   H1957     1.0  0.45710  0.41760  0.95467  1.0000
  C   C1120     1.0  0.25621  0.34074  0.94017  1.0000
  H   H1958     1.0  0.23755  0.34101  0.97301  1.0000
  H   H1959     1.0  0.23899  0.32329  0.90765  1.0000
  C   C1121     1.0  0.46101  0.55733  0.84791  1.0000
  C   C1122     1.0  0.35445  0.50436  0.55118  1.0000
  H   H1960     1.0  0.45716  0.45836  0.82145  1.0000
  C   C1123     1.0  0.45698  0.32666  0.70215  1.0000
  H   H1961     1.0  0.34681  0.51093  0.54349  1.0000
  H   H1962     1.0  0.36140  0.47226  0.51236  1.0000
  H   H1963     1.0  0.43392  0.35181  0.91200  1.0000
  C   C1124     1.0  0.42377  0.42583  0.50571  1.0000
  C   C1125     1.0  0.43916  0.43857  0.93986  1.0000
  H   H1964     1.0  0.27476  0.33239  0.98235  1.0000
  H   H1965     1.0  0.45156  0.37971  0.67243  1.0000
  H   H1966     1.0  0.39095  0.51381  0.92202  1.0000
  H   H1967     1.0  0.35444  0.52908  0.59498  1.0000
  C   C1126     1.0  0.46142  0.40001  0.92314  1.0000
  C   C1127     1.0  0.45733  0.44808  0.94309  1.0000
  H   H1968     1.0  0.45122  0.44721  0.87776  1.0000
  H   H1969     1.0  0.26312  0.35431  0.94086  1.0000
  Fe  Fe122     1.0  0.46014  0.53031  0.66052  1.0000
  H   H1970     1.0  0.23901  0.32139  0.96804  1.0000
  C   C1128     1.0  0.41125  0.37837  0.78542  1.0000
  H   H1971     1.0  0.46116  0.44422  0.96588  1.0000
  H   H1972     1.0  0.32604  0.47970  0.53740  1.0000
  H   H1973     1.0  0.37281  0.37686  0.88151  1.0000
  C   C1129     1.0  0.45323  0.49167  0.93600  1.0000
  C   C1130     1.0  0.43357  0.35421  0.88579  1.0000
  H   H1974     1.0  0.41781  0.53191  0.96939  1.0000
  S   S249      1.0  0.46061  0.52067  0.78252  1.0000
  H   H1975     1.0  0.40590  0.32484  0.82921  1.0000
  C   C1131     1.0  0.21334  0.40373  0.75625  1.0000
  H   H1976     1.0  0.45123  0.35344  0.64563  1.0000
  C   C1132     1.0  0.34460  0.49006  0.49938  1.0000
  C   C1133     1.0  0.37463  0.46518  0.56466  1.0000
  H   H1977     1.0  0.26456  0.33442  0.93623  1.0000
  H   H1978     1.0  0.46127  0.56945  0.83973  1.0000
  H   H1979     1.0  0.36188  0.37892  0.84718  1.0000
  H   H1980     1.0  0.40266  0.37899  0.84929  1.0000
  H   H1981     1.0  0.44196  0.53479  0.58697  1.0000
  H   H1982     1.0  0.42452  0.37124  0.84010  1.0000
  C   C1134     1.0  0.37792  0.36645  0.83600  1.0000
  S   S250      1.0  0.45394  0.54503  0.70052  1.0000
  Fe  Fe123     1.0  0.45593  0.41100  0.78811  1.0000
  H   H1983     1.0  0.21928  0.41375  0.73864  1.0000
  H   H1984     1.0  0.46230  0.39247  0.94375  1.0000
  H   H1985     1.0  0.30120  0.39611  0.92470  1.0000
  H   H1986     1.0  0.42333  0.43799  0.49989  1.0000
  H   H1987     1.0  0.40549  0.38622  0.79702  1.0000
  N   N61       1.0  0.41677  0.47622  0.72042  1.0000
  C   C1135     1.0  0.41156  0.46101  0.69865  1.0000
  C   C1136     1.0  0.40684  0.47292  0.75139  1.0000
  C   C1137     1.0  0.41397  0.48968  0.70234  1.0000
  C   C1138     1.0  0.43419  0.48233  0.72796  1.0000
  C   C1139     1.0  0.43989  0.46984  0.74416  1.0000
  C   C1140     1.0  0.42043  0.46286  0.66548  1.0000
  C   C1141     1.0  0.41691  0.50604  0.72146  1.0000
  C   C1142     1.0  0.40066  0.45506  0.76485  1.0000
  C   C1143     1.0  0.39351  0.45435  0.79891  1.0000
  S   S251      1.0  0.45447  0.39033  0.75359  1.0000
  C   C1144     1.0  0.41509  0.44633  0.64703  1.0000
  C   C1145     1.0  0.41258  0.51808  0.70122  1.0000
  H   H1988     1.0  0.39866  0.45697  0.69360  1.0000
  H   H1989     1.0  0.41274  0.45037  0.71075  1.0000
  H   H1990     1.0  0.41343  0.48164  0.77103  1.0000
  H   H1991     1.0  0.39590  0.47547  0.74803  1.0000
  H   H1992     1.0  0.40157  0.48499  0.69331  1.0000
  H   H1993     1.0  0.42184  0.49337  0.68058  1.0000
  H   H1994     1.0  0.44152  0.48713  0.70575  1.0000
  H   H1995     1.0  0.43757  0.49319  0.74469  1.0000
  H   H1996     1.0  0.43639  0.45802  0.73032  1.0000
  H   H1997     1.0  0.43502  0.46738  0.76924  1.0000
  H   H1998     1.0  0.41795  0.47171  0.64982  1.0000
  H   H1999     1.0  0.43343  0.46719  0.66866  1.0000
  H   H2000     1.0  0.42961  0.51227  0.72766  1.0000
  H   H2001     1.0  0.40970  0.50386  0.74413  1.0000
  H   H2002     1.0  0.39117  0.44663  0.74901  1.0000
  H   H2003     1.0  0.41010  0.45012  0.76592  1.0000
  H   H2004     1.0  0.38838  0.44133  0.80718  1.0000
  H   H2005     1.0  0.40279  0.46167  0.81626  1.0000
  H   H2006     1.0  0.38396  0.45929  0.79924  1.0000
  H   H2007     1.0  0.42365  0.38281  0.79385  1.0000
  H   H2008     1.0  0.37857  0.36966  0.81005  1.0000
  H   H2009     1.0  0.45036  0.49156  0.96233  1.0000
  H   H2010     1.0  0.45481  0.49088  0.55893  1.0000
  H   H2011     1.0  0.41790  0.43706  0.66087  1.0000
  H   H2012     1.0  0.32867  0.46455  0.51008  1.0000
  H   H2013     1.0  0.41521  0.52985  0.71503  1.0000
  H   H2014     1.0  0.41962  0.52088  0.67822  1.0000
  H   H2015     1.0  0.39974  0.51278  0.69554  1.0000
  S   S252      1.0  0.27052  0.39116  0.95220  1.0000
  H   H2016     1.0  0.22183  0.38710  0.78314  1.0000
  C   C1146     1.0  0.37356  0.37932  0.85510  1.0000
  H   H2017     1.0  0.37809  0.51321  0.57457  1.0000
  H   H2018     1.0  0.43421  0.43621  0.99194  1.0000
  H   H2019     1.0  0.23481  0.41512  0.80742  1.0000
  H   H2020     1.0  0.39044  0.35543  0.78127  1.0000
  H   H2021     1.0  0.41154  0.47992  0.53607  1.0000
  H   H2022     1.0  0.42141  0.44807  0.62324  1.0000
  C   C1147     1.0  0.24618  0.33481  0.97173  1.0000
  C   C1148     1.0  0.45646  0.49216  0.50671  1.0000
  H   H2023     1.0  0.43263  0.45430  0.97428  1.0000
  C   C1149     1.0  0.44966  0.55142  0.87694  1.0000
  H   H2024     1.0  0.39158  0.36199  0.87354  1.0000
  H   H2025     1.0  0.36641  0.52703  0.49995  1.0000
  C   C1150     1.0  0.23959  0.41158  0.78473  1.0000
  H   H2026     1.0  0.41363  0.36105  0.89378  1.0000
  N   N62       1.0  0.40037  0.35532  0.82853  1.0000
  H   H2027     1.0  0.45232  0.42262  0.89530  1.0000
  C   C1151     1.0  0.43040  0.44098  0.97033  1.0000
  C   C1152     1.0  0.36346  0.52382  0.59995  1.0000
  H   H2028     1.0  0.21425  0.35245  0.68083  1.0000
  H   H2029     1.0  0.24902  0.40719  0.79133  1.0000
  H   H2030     1.0  0.37772  0.33551  0.81933  1.0000
  H   H2031     1.0  0.25291  0.34163  0.88844  1.0000
  H   H2032     1.0  0.43603  0.42509  0.93626  1.0000
  H   H2033     1.0  0.24499  0.42266  0.76927  1.0000
  N   N63       1.0  0.35817  0.49509  0.52286  1.0000
  H   H2034     1.0  0.43762  0.34172  0.67665  1.0000
  C   C1153     1.0  0.37307  0.50538  0.50451  1.0000
  C   C1154     1.0  0.41694  0.35281  0.87692  1.0000
  H   H2035     1.0  0.38414  0.46716  0.58250  1.0000
  H   H2036     1.0  0.39707  0.53510  0.93590  1.0000
  H   H2037     1.0  0.45704  0.54833  0.82739  1.0000
  H   H2038     1.0  0.44252  0.36678  0.88054  1.0000
  H   H2039     1.0  0.27689  0.35911  0.99143  1.0000
  C   C1155     1.0  0.46192  0.35583  0.69413  1.0000
  H   H2040     1.0  0.38558  0.33441  0.85744  1.0000
  H   H2041     1.0  0.34873  0.47118  0.54626  1.0000
  H   H2042     1.0  0.38886  0.51846  0.96421  1.0000
  H   H2043     1.0  0.44252  0.52511  0.86896  1.0000
  C   C1156     1.0  0.39499  0.32435  0.81718  1.0000
  H   H2044     1.0  0.44915  0.39456  0.91375  1.0000
  H   H2045     1.0  0.22023  0.43451  0.95389  1.0000
  C   C1157     1.0  0.44030  0.42584  0.49880  1.0000
  C   C1158     1.0  0.21501  0.43491  0.97833  1.0000
  H   H2046     1.0  0.40877  0.33983  0.88116  1.0000
  H   H2047     1.0  0.45388  0.56088  0.89659  1.0000
  C   C1159     1.0  0.45446  0.50794  0.92105  1.0000
  H   H2048     1.0  0.45239  0.32817  0.72662  1.0000
  H   H2049     1.0  0.45085  0.50142  0.50697  1.0000
  H   H2050     1.0  0.45908  0.46123  0.94742  1.0000
  H   H2051     1.0  0.43422  0.47167  0.51847  1.0000
  C   C1160     1.0  0.32850  0.47719  0.51183  1.0000
  H   H2052     1.0  0.46212  0.48808  0.76232  1.0000
  H   H2053     1.0  0.45550  0.52434  0.98164  1.0000
  Fe  Fe124     1.0  0.21278  0.38626  0.94189  1.0000
  C   C1161     1.0  0.44348  0.47529  0.49905  1.0000
  H   H2054     1.0  0.24577  0.85598  0.28537  1.0000
  S   S253      1.0  0.22907  0.83605  0.22902  1.0000
  H   H2055     1.0  0.29494  0.90890  0.23636  1.0000
  S   S254      1.0  0.22435  0.80023  0.19322  1.0000
  H   H2056     1.0  0.44255  0.85153  0.42618  1.0000
  Fe  Fe125     1.0  0.23900  0.82756  0.18502  1.0000
  S   S255      1.0  0.26437  0.84021  0.16358  1.0000
  H   H2057     1.0  0.22119  0.80831  0.43382  1.0000
  Fe  Fe126     1.0  0.38403  0.92661  0.15355  1.0000
  S   S256      1.0  0.36764  0.90266  0.13128  1.0000
  S   S257      1.0  0.38480  0.95052  0.13157  1.0000
  Fe  Fe127     1.0  0.39703  0.90898  0.20192  1.0000
  S   S258      1.0  0.38184  0.88363  0.18210  1.0000
  S   S259      1.0  0.41282  0.91706  0.24673  1.0000
  Fe  Fe128     1.0  0.38889  0.89554  0.13276  1.0000
  S   S260      1.0  0.39385  0.88585  0.08363  1.0000
  Fe  Fe129     1.0  0.36166  0.89275  0.18171  1.0000
  S   S261      1.0  0.33708  0.87895  0.20619  1.0000
  S   S262      1.0  0.40542  0.92002  0.15273  1.0000
  S   S263      1.0  0.37663  0.91752  0.20408  1.0000
  H   H2058     1.0  0.43322  0.91786  0.44758  1.0000
  S   S264      1.0  0.44073  0.88813  0.46558  1.0000
  C   C1162     1.0  0.45952  0.96057  0.24536  1.0000
  C   C1163     1.0  0.41268  0.88942  0.06566  1.0000
  C   C1164     1.0  0.42616  0.89268  0.08432  1.0000
  C   C1165     1.0  0.44076  0.89470  0.06921  1.0000
  H   H2059     1.0  0.42546  0.89443  0.40856  1.0000
  H   H2060     1.0  0.42525  0.86868  0.39570  1.0000
  C   C1166     1.0  0.41402  0.88837  0.03173  1.0000
  H   H2061     1.0  0.42524  0.89330  0.11045  1.0000
  C   C1167     1.0  0.25001  0.91975  0.26771  1.0000
  C   C1168     1.0  0.24819  0.90671  0.24121  1.0000
  H   H2062     1.0  0.40360  0.88565  0.01713  1.0000
  C   C1169     1.0  0.42582  0.90907  0.26469  1.0000
  C   C1170     1.0  0.43244  0.91574  0.29473  1.0000
  C   C1171     1.0  0.44321  0.91030  0.30983  1.0000
  C   C1172     1.0  0.44766  0.89822  0.29489  1.0000
  C   C1173     1.0  0.44101  0.89147  0.26488  1.0000
  C   C1174     1.0  0.43008  0.89680  0.24987  1.0000
  H   H2063     1.0  0.42923  0.92525  0.30630  1.0000
  C   C1175     1.0  0.38406  0.92324  0.04989  1.0000
  H   H2064     1.0  0.44436  0.88210  0.25306  1.0000
  H   H2065     1.0  0.42510  0.89157  0.22670  1.0000
  C   C1176     1.0  0.31698  0.86805  0.19358  1.0000
  C   C1177     1.0  0.31259  0.86608  0.16099  1.0000
  C   C1178     1.0  0.29650  0.85759  0.15245  1.0000
  C   C1179     1.0  0.28450  0.85087  0.17621  1.0000
  C   C1180     1.0  0.28887  0.85290  0.20881  1.0000
  C   C1181     1.0  0.30495  0.86140  0.21735  1.0000
  H   H2066     1.0  0.32159  0.87107  0.14234  1.0000
  H   H2067     1.0  0.29336  0.85611  0.12714  1.0000
  H   H2068     1.0  0.27991  0.84771  0.22741  1.0000
  H   H2069     1.0  0.30813  0.86278  0.24263  1.0000
  H   H2070     1.0  0.39865  0.94905  0.04851  1.0000
  C   C1182     1.0  0.40345  0.96666  0.12541  1.0000
  C   C1183     1.0  0.38516  0.85972  0.45277  1.0000
  C   C1184     1.0  0.43058  0.96360  0.04083  1.0000
  C   C1185     1.0  0.41675  0.96731  0.14235  1.0000
  H   H2071     1.0  0.45316  0.95282  0.37033  1.0000
  H   H2072     1.0  0.21534  0.86244  0.25409  1.0000
  H   H2073     1.0  0.41566  0.95785  0.15978  1.0000
  C   C1186     1.0  0.39983  0.93721  0.04157  1.0000
  H   H2074     1.0  0.41975  0.84606  0.35462  1.0000
  H   H2075     1.0  0.42695  0.83283  0.43998  1.0000
  C   C1187     1.0  0.22360  0.78614  0.48440  1.0000
  H   H2076     1.0  0.40207  0.85730  0.41862  1.0000
  H   H2077     1.0  0.23202  0.79918  0.48850  1.0000
  H   H2078     1.0  0.23622  0.79957  0.01578  1.0000
  C   C1188     1.0  0.41866  0.89921  0.39257  1.0000
  H   H2079     1.0  0.40265  0.86226  0.35098  1.0000
  H   H2080     1.0  0.46113  0.93713  0.25488  1.0000
  H   H2081     1.0  0.41244  0.92236  0.05826  1.0000
  H   H2082     1.0  0.22428  0.78018  0.03403  1.0000
  C   C1189     1.0  0.41369  0.93553  0.06030  1.0000
  H   H2083     1.0  0.45261  0.83204  0.45342  1.0000
  Fe  Fe130     1.0  0.21343  0.80911  0.23607  1.0000
  C   C1190     1.0  0.44211  0.89364  0.03530  1.0000
  H   H2084     1.0  0.21664  0.84655  0.37759  1.0000
  H   H2085     1.0  0.23308  0.78047  0.41835  1.0000
  C   C1191     1.0  0.25857  0.87655  0.23110  1.0000
  H   H2086     1.0  0.25769  0.88617  0.28064  1.0000
  H   H2087     1.0  0.40847  0.87677  0.44091  1.0000
  H   H2088     1.0  0.25569  0.91721  0.28934  1.0000
  H   H2089     1.0  0.43621  0.95676  0.09965  1.0000
  C   C1192     1.0  0.22556  0.79322  0.03107  1.0000
  H   H2090     1.0  0.38377  0.86434  0.38682  1.0000
  H   H2091     1.0  0.44198  0.83339  0.48972  1.0000
  H   H2092     1.0  0.24920  0.79957  0.37567  1.0000
  H   H2093     1.0  0.25726  0.93233  0.25870  1.0000
  C   C1193     1.0  0.42867  0.89055  0.01656  1.0000
  H   H2094     1.0  0.28002  0.88387  0.18134  1.0000
  H   H2095     1.0  0.23768  0.86260  0.11630  1.0000
  C   C1194     1.0  0.43741  0.93918  0.02548  1.0000
  H   H2096     1.0  0.26227  0.87750  0.14458  1.0000
  C   C1195     1.0  0.41365  0.91133  0.41369  1.0000
  H   H2097     1.0  0.27242  0.90956  0.25010  1.0000
  H   H2098     1.0  0.38751  0.90010  0.29401  1.0000
  H   H2099     1.0  0.44077  0.85719  0.35998  1.0000
  H   H2100     1.0  0.39473  0.97851  0.08974  1.0000
  H   H2101     1.0  0.24805  0.86299  0.17148  1.0000
  H   H2102     1.0  0.42747  0.90666  0.37418  1.0000
  H   H2103     1.0  0.43636  0.92668  0.03327  1.0000
  H   H2104     1.0  0.37147  0.89613  0.32329  1.0000
  C   C1196     1.0  0.43662  0.84447  0.44799  1.0000
  H   H2105     1.0  0.43124  0.85183  0.46262  1.0000
  H   H2106     1.0  0.24073  0.88416  0.12035  1.0000
  C   C1197     1.0  0.22867  0.80150  0.06464  1.0000
  C   C1198     1.0  0.25245  0.88904  0.18303  1.0000
  C   C1199     1.0  0.28013  0.89500  0.19510  1.0000
  H   H2107     1.0  0.43741  0.88345  0.36726  1.0000
  H   H2108     1.0  0.39128  0.87481  0.31234  1.0000
  C   C1200     1.0  0.26456  0.90707  0.22892  1.0000
  H   H2109     1.0  0.36987  0.88160  0.29060  1.0000
  H   H2110     1.0  0.37569  0.87140  0.34218  1.0000
  H   H2111     1.0  0.26999  0.91824  0.21355  1.0000
  C   C1201     1.0  0.23816  0.87256  0.13391  1.0000
  H   H2112     1.0  0.37436  0.92466  0.03614  1.0000
  C   C1202     1.0  0.21794  0.79471  0.43074  1.0000
  H   H2113     1.0  0.37477  0.84993  0.44132  1.0000
  C   C1203     1.0  0.44051  0.95010  0.08088  1.0000
  H   H2114     1.0  0.29365  0.88787  0.23063  1.0000
  H   H2115     1.0  0.22734  0.85454  0.34044  1.0000
  C   C1204     1.0  0.25889  0.86239  0.28426  1.0000
  C   C1205     1.0  0.23736  0.79937  0.38312  1.0000
  H   H2116     1.0  0.38944  0.85406  0.47238  1.0000
  H   H2117     1.0  0.44204  0.94339  0.14634  1.0000
  H   H2118     1.0  0.23932  0.80040  0.07514  1.0000
  C   C1206     1.0  0.44841  0.84038  0.46822  1.0000
  N   N64       1.0  0.43042  0.94706  0.05108  1.0000
  H   H2119     1.0  0.38134  0.92371  0.07612  1.0000
  H   H2120     1.0  0.26332  0.86451  0.30946  1.0000
  H   H2121     1.0  0.23084  0.81487  0.06311  1.0000
  H   H2122     1.0  0.42411  0.93275  0.44549  1.0000
  C   C1207     1.0  0.21766  0.84379  0.35143  1.0000
  C   C1208     1.0  0.31008  0.90560  0.19912  1.0000
  H   H2123     1.0  0.44833  0.91570  0.33270  1.0000
  H   H2124     1.0  0.24539  0.87072  0.23176  1.0000
  H   H2125     1.0  0.22846  0.79091  0.36625  1.0000
  H   H2126     1.0  0.40489  0.90461  0.43267  1.0000
  H   H2127     1.0  0.45303  0.95824  0.07545  1.0000
  H   H2128     1.0  0.27653  0.88566  0.26986  1.0000
  H   H2129     1.0  0.42297  0.96228  0.01960  1.0000
  C   C1209     1.0  0.29436  0.89924  0.21812  1.0000
  C   C1210     1.0  0.39850  0.86738  0.42785  1.0000
  C   C1211     1.0  0.25108  0.87483  0.15862  1.0000
  H   H2130     1.0  0.26408  0.85430  0.27148  1.0000
  N   N65       1.0  0.40545  0.88529  0.37591  1.0000
  H   H2131     1.0  0.43712  0.93135  0.41305  1.0000
  H   H2132     1.0  0.38619  0.88228  0.41000  1.0000
  C   C1212     1.0  0.39286  0.87497  0.39955  1.0000
  S   S265      1.0  0.22045  0.82992  0.15263  1.0000
  H   H2133     1.0  0.45106  0.89695  0.08392  1.0000
  H   H2134     1.0  0.24177  0.90937  0.22089  1.0000
  H   H2135     1.0  0.23083  0.77962  0.47354  1.0000
  H   H2136     1.0  0.41632  0.88019  0.33183  1.0000
  H   H2137     1.0  0.22638  0.86895  0.14615  1.0000
  C   C1213     1.0  0.42665  0.87190  0.36978  1.0000
  H   H2138     1.0  0.23756  0.81210  0.38099  1.0000
  C   C1214     1.0  0.26362  0.87897  0.26720  1.0000
  H   H2139     1.0  0.25550  0.90060  0.16886  1.0000
  H   H2140     1.0  0.24020  0.88603  0.19282  1.0000
  H   H2141     1.0  0.40847  0.91826  0.39861  1.0000
  H   H2142     1.0  0.38142  0.86937  0.46387  1.0000
  C   C1215     1.0  0.38553  0.88104  0.32904  1.0000
  H   H2143     1.0  0.40692  0.90255  0.33788  1.0000
  C   C1216     1.0  0.39772  0.89307  0.35290  1.0000
  H   H2144     1.0  0.44843  0.92935  0.08105  1.0000
  N   N66       1.0  0.26403  0.89181  0.21034  1.0000
  H   H2145     1.0  0.43140  0.86092  0.32481  1.0000
  H   H2146     1.0  0.31229  0.91788  0.18859  1.0000
  H   H2147     1.0  0.28308  0.90513  0.17712  1.0000
  S   S266      1.0  0.46076  0.89592  0.01788  1.0000
  C   C1217     1.0  0.37818  0.89034  0.30808  1.0000
  H   H2148     1.0  0.21843  0.79547  0.08130  1.0000
  C   C1218     1.0  0.42977  0.85815  0.35110  1.0000
  H   H2149     1.0  0.31002  0.89681  0.17925  1.0000
  H   H2150     1.0  0.22080  0.83274  0.34863  1.0000
  H   H2151     1.0  0.40164  0.93703  0.01503  1.0000
  C   C1219     1.0  0.41213  0.87462  0.35608  1.0000
  H   H2152     1.0  0.26251  0.86700  0.21995  1.0000
  H   H2153     1.0  0.24060  0.89441  0.25095  1.0000
  H   H2154     1.0  0.32000  0.90688  0.21549  1.0000
  H   H2155     1.0  0.24359  0.80106  0.43327  1.0000
  C   C1220     1.0  0.42794  0.92409  0.43091  1.0000
  H   H2156     1.0  0.39133  0.89980  0.36654  1.0000
  H   H2157     1.0  0.41104  0.93740  0.08629  1.0000
  C   C1221     1.0  0.44704  0.97713  0.03245  1.0000
  C   C1222     1.0  0.23352  0.79327  0.41791  1.0000
  H   H2158     1.0  0.46234  0.96025  0.19276  1.0000
  C   C1223     1.0  0.44129  0.93449  0.09658  1.0000
  H   H2159     1.0  0.38446  0.91097  0.04368  1.0000
  H   H2160     1.0  0.23811  0.91941  0.27514  1.0000
  H   H2161     1.0  0.42520  0.96872  0.06045  1.0000
  H   H2162     1.0  0.44512  0.96386  0.20705  1.0000
  H   H2163     1.0  0.42933  0.92474  0.10018  1.0000
  H   H2164     1.0  0.44517  0.94332  0.20875  1.0000
  C   C1224     1.0  0.44910  0.93864  0.12967  1.0000
  H   H2165     1.0  0.45874  0.86646  0.48218  1.0000
  H   H2166     1.0  0.45040  0.94633  0.02272  1.0000
  H   H2167     1.0  0.46013  0.93447  0.49240  1.0000
  H   H2168     1.0  0.44956  0.92726  0.14023  1.0000
  H   H2169     1.0  0.46220  0.96313  0.49673  1.0000
  H   H2170     1.0  0.45029  0.84196  0.00233  1.0000
  H   H2171     1.0  0.45354  0.97244  0.01448  1.0000
  H   H2172     1.0  0.46137  0.94806  0.12741  1.0000
  H   H2173     1.0  0.44927  0.95739  0.26258  1.0000
  C   C1225     1.0  0.45267  0.95674  0.21134  1.0000
  H   H2174     1.0  0.45783  0.94492  0.31124  1.0000
  H   H2175     1.0  0.21579  0.75571  0.45174  1.0000
  S   S267      1.0  0.46177  0.89164  0.31259  1.0000
  H   H2176     1.0  0.21280  0.97634  0.36427  1.0000
  H   H2177     1.0  0.46263  0.65702  0.26238  1.0000
  H   H2178     1.0  0.46207  0.83003  0.01060  1.0000
  H   H2179     1.0  0.34511  0.85868  0.81750  1.0000
  S   S268      1.0  0.23743  0.83489  0.74502  1.0000
  C   C1226     1.0  0.46093  0.83952  0.99452  1.0000
  S   S269      1.0  0.23811  0.80428  0.69714  1.0000
  H   H2180     1.0  0.36938  0.84027  0.74707  1.0000
  Fe  Fe131     1.0  0.25065  0.83233  0.69954  1.0000
  S   S270      1.0  0.27677  0.85126  0.69493  1.0000
  S   S271      1.0  0.23240  0.83570  0.66765  1.0000
  Fe  Fe132     1.0  0.39379  0.92676  0.66076  1.0000
  S   S272      1.0  0.38751  0.90556  0.62477  1.0000
  S   S273      1.0  0.39367  0.95232  0.65309  1.0000
  Fe  Fe133     1.0  0.40237  0.90779  0.71406  1.0000
  S   S274      1.0  0.39684  0.88519  0.68211  1.0000
  S   S275      1.0  0.41092  0.91335  0.76623  1.0000
  Fe  Fe134     1.0  0.40966  0.90285  0.64209  1.0000
  S   S276      1.0  0.43188  0.90335  0.61467  1.0000
  Fe  Fe135     1.0  0.37486  0.88954  0.66744  1.0000
  S   S277      1.0  0.35095  0.86693  0.66607  1.0000
  S   S278      1.0  0.41648  0.92506  0.67544  1.0000
  S   S279      1.0  0.37983  0.91110  0.70200  1.0000
  S   S280      1.0  0.22026  0.79357  0.78961  1.0000
  H   H2181     1.0  0.45940  0.91245  0.57327  1.0000
  H   H2182     1.0  0.45383  0.86577  0.59315  1.0000
  C   C1227     1.0  0.43393  0.90018  0.57253  1.0000
  C   C1228     1.0  0.44924  0.90577  0.55845  1.0000
  C   C1229     1.0  0.45150  0.90272  0.52544  1.0000
  H   H2183     1.0  0.22652  0.80948  0.87742  1.0000
  C   C1230     1.0  0.42316  0.88809  0.52039  1.0000
  C   C1231     1.0  0.42087  0.89149  0.55322  1.0000
  H   H2184     1.0  0.42947  0.88945  0.99050  1.0000
  Fe  Fe136     1.0  0.22405  0.80722  0.74142  1.0000
  H   H2185     1.0  0.22739  0.91267  0.76919  1.0000
  H   H2186     1.0  0.40905  0.88701  0.56382  1.0000
  C   C1232     1.0  0.42193  0.90421  0.78804  1.0000
  C   C1233     1.0  0.42658  0.90987  0.81980  1.0000
  C   C1234     1.0  0.43528  0.90295  0.83816  1.0000
  C   C1235     1.0  0.43943  0.89029  0.82497  1.0000
  C   C1236     1.0  0.43479  0.88462  0.79320  1.0000
  C   C1237     1.0  0.42614  0.89159  0.77474  1.0000
  H   H2187     1.0  0.42330  0.91955  0.83038  1.0000
  H   H2188     1.0  0.43853  0.90721  0.86274  1.0000
  H   H2189     1.0  0.43788  0.87478  0.78282  1.0000
  H   H2190     1.0  0.42262  0.88710  0.75036  1.0000
  C   C1238     1.0  0.33029  0.86301  0.67284  1.0000
  C   C1239     1.0  0.32470  0.87567  0.67889  1.0000
  C   C1240     1.0  0.30837  0.87181  0.68547  1.0000
  C   C1241     1.0  0.29726  0.85528  0.68581  1.0000
  C   C1242     1.0  0.30285  0.84264  0.67952  1.0000
  C   C1243     1.0  0.31919  0.84649  0.67317  1.0000
  H   H2191     1.0  0.33294  0.88845  0.67856  1.0000
  H   H2192     1.0  0.30428  0.88174  0.69016  1.0000
  H   H2193     1.0  0.29457  0.82987  0.67965  1.0000
  H   H2194     1.0  0.32326  0.83654  0.66851  1.0000
  H   H2195     1.0  0.43482  0.86395  0.57854  1.0000
  C   C1244     1.0  0.40759  0.96463  0.62456  1.0000
  C   C1245     1.0  0.41600  0.95777  0.60433  1.0000
  H   H2196     1.0  0.34710  0.88269  0.72787  1.0000
  C   C1246     1.0  0.31605  0.84171  0.77733  1.0000
  H   H2197     1.0  0.41382  0.94473  0.60585  1.0000
  H   H2198     1.0  0.23936  0.90356  0.81845  1.0000
  C   C1247     1.0  0.36792  0.86433  0.75650  1.0000
  H   H2199     1.0  0.24544  0.89747  0.76176  1.0000
  H   H2200     1.0  0.22783  0.77382  0.56259  1.0000
  H   H2201     1.0  0.35228  0.88285  0.87051  1.0000
  H   H2202     1.0  0.37034  0.88631  0.80550  1.0000
  H   H2203     1.0  0.45644  0.92695  0.78350  1.0000
  C   C1248     1.0  0.42983  0.93652  0.99164  1.0000
  C   C1249     1.0  0.21988  0.90426  0.78827  1.0000
  H   H2204     1.0  0.45113  0.94885  0.82744  1.0000
  C   C1250     1.0  0.21804  0.77837  0.51813  1.0000
  H   H2205     1.0  0.33433  0.87162  0.82090  1.0000
  C   C1251     1.0  0.43963  0.93108  0.96694  1.0000
  H   H2206     1.0  0.43604  0.95739  0.71511  1.0000
  H   H2207     1.0  0.41300  0.88101  0.50589  1.0000
  H   H2208     1.0  0.44812  0.82227  0.95748  1.0000
  C   C1252     1.0  0.45922  0.83352  0.95923  1.0000
  H   H2209     1.0  0.22105  0.77309  0.97534  1.0000
  H   H2210     1.0  0.44920  0.93691  0.88297  1.0000
  H   H2211     1.0  0.24600  0.95716  0.85738  1.0000
  H   H2212     1.0  0.29250  0.82245  0.78296  1.0000
  C   C1253     1.0  0.43397  0.96769  0.70320  1.0000
  H   H2213     1.0  0.44905  0.91662  0.72779  1.0000
  H   H2214     1.0  0.42902  0.94793  0.98233  1.0000
  H   H2215     1.0  0.21317  0.93162  0.77551  1.0000
  H   H2216     1.0  0.45161  0.94097  0.96358  1.0000
  C   C1254     1.0  0.21872  0.80067  0.95990  1.0000
  H   H2217     1.0  0.44721  0.93625  0.72300  1.0000
  H   H2218     1.0  0.35773  0.89688  0.81688  1.0000
  H   H2219     1.0  0.33581  0.89639  0.78890  1.0000
  H   H2220     1.0  0.45945  0.95215  0.60412  1.0000
  H   H2221     1.0  0.23680  0.94231  0.88908  1.0000
  C   C1255     1.0  0.34750  0.88475  0.75457  1.0000
  H   H2222     1.0  0.44092  0.91966  0.97514  1.0000
  C   C1256     1.0  0.40904  0.95709  0.73863  1.0000
  N   N67       1.0  0.21321  0.91376  0.81120  1.0000
  H   H2223     1.0  0.24013  0.79263  0.54278  1.0000
  C   C1257     1.0  0.23216  0.77949  0.53862  1.0000
  H   H2224     1.0  0.46017  0.81836  0.84842  1.0000
  H   H2225     1.0  0.35280  0.97857  0.57570  1.0000
  H   H2226     1.0  0.37313  0.89452  0.86300  1.0000
  H   H2227     1.0  0.36018  0.89212  0.75934  1.0000
  H   H2228     1.0  0.22763  0.87880  0.76161  1.0000
  N   N68       1.0  0.34173  0.86836  0.77170  1.0000
  C   C1258     1.0  0.22179  0.94013  0.84750  1.0000
  H   H2229     1.0  0.32642  0.89082  0.75016  1.0000
  H   H2230     1.0  0.31757  0.86685  0.77853  1.0000
  C   C1259     1.0  0.34683  0.91350  0.75044  1.0000
  H   H2231     1.0  0.45616  0.97837  0.95171  1.0000
  C   C1260     1.0  0.23696  0.88764  0.77717  1.0000
  H   H2232     1.0  0.32153  0.85992  0.73986  1.0000
  H   H2233     1.0  0.45575  0.83754  0.54162  1.0000
  H   H2234     1.0  0.34574  0.85466  0.73066  1.0000
  H   H2235     1.0  0.43857  0.84547  0.58529  1.0000
  C   C1261     1.0  0.23476  0.95039  0.87083  1.0000
  H   H2236     1.0  0.22022  0.89811  0.86390  1.0000
  H   H2237     1.0  0.33978  0.92109  0.75654  1.0000
  H   H2238     1.0  0.23101  0.95959  0.88379  1.0000
  H   H2239     1.0  0.31928  0.84041  0.80258  1.0000
  C   C1262     1.0  0.45352  0.96587  0.64315  1.0000
  H   H2240     1.0  0.29345  0.84303  0.79238  1.0000
  H   H2241     1.0  0.43344  0.96223  0.56596  1.0000
  C   C1263     1.0  0.33806  0.89586  0.76246  1.0000
  H   H2242     1.0  0.45467  0.87219  0.53461  1.0000
  H   H2243     1.0  0.45879  0.92957  0.69423  1.0000
  H   H2244     1.0  0.23348  0.92274  0.84329  1.0000
  H   H2245     1.0  0.46130  0.96416  0.69189  1.0000
  H   H2246     1.0  0.45411  0.97561  0.62577  1.0000
  C   C1264     1.0  0.42711  0.96771  0.58175  1.0000
  H   H2247     1.0  0.34564  0.84542  0.76858  1.0000
  C   C1265     1.0  0.34456  0.87023  0.80780  1.0000
  C   C1266     1.0  0.37410  0.85294  0.73695  1.0000
  H   H2248     1.0  0.24346  0.88078  0.78857  1.0000
  C   C1267     1.0  0.44594  0.79286  0.85630  1.0000
  C   C1268     1.0  0.34957  0.85755  0.75629  1.0000
  C   C1269     1.0  0.32408  0.85990  0.76607  1.0000
  H   H2249     1.0  0.44117  0.95671  0.64442  1.0000
  C   C1270     1.0  0.22956  0.89515  0.80343  1.0000
  H   H2250     1.0  0.45018  0.81657  0.90376  1.0000
  H   H2251     1.0  0.43496  0.79507  0.86208  1.0000
  C   C1271     1.0  0.29797  0.83563  0.77574  1.0000
  H   H2252     1.0  0.45837  0.80224  0.91492  1.0000
  H   H2253     1.0  0.37213  0.86474  0.78161  1.0000
  H   H2254     1.0  0.21574  0.74771  0.94119  1.0000
  H   H2255     1.0  0.23895  0.77273  0.52662  1.0000
  H   H2256     1.0  0.37058  0.85228  0.71118  1.0000
  H   H2257     1.0  0.40268  0.94848  0.71883  1.0000
  H   H2258     1.0  0.23557  0.93483  0.80885  1.0000
  H   H2259     1.0  0.43360  0.92839  0.94321  1.0000
  H   H2260     1.0  0.24011  0.81660  0.91057  1.0000
  C   C1272     1.0  0.22745  0.81250  0.90379  1.0000
  S   S281      1.0  0.45018  0.88108  0.84749  1.0000
  H   H2261     1.0  0.22334  0.82280  0.90828  1.0000
  C   C1273     1.0  0.35949  0.88510  0.81948  1.0000
  H   H2262     1.0  0.31967  0.83341  0.76115  1.0000
  H   H2263     1.0  0.44593  0.78966  0.83011  1.0000
  H   H2264     1.0  0.34849  0.91343  0.72369  1.0000
  H   H2265     1.0  0.36529  0.87230  0.85890  1.0000
  H   H2266     1.0  0.29423  0.83659  0.75067  1.0000
  H   H2267     1.0  0.21966  0.94888  0.83093  1.0000
  H   H2268     1.0  0.23099  0.80207  0.96570  1.0000
  Fe  Fe137     1.0  0.21862  0.83633  0.71276  1.0000
  H   H2269     1.0  0.21847  0.81312  0.96485  1.0000
  C   C1274     1.0  0.36267  0.88353  0.85519  1.0000
  C   C1275     1.0  0.45972  0.97379  0.67675  1.0000
  H   H2270     1.0  0.44789  0.95692  0.88273  1.0000
  H   H2271     1.0  0.35860  0.91932  0.76204  1.0000
  Fe  Fe138     1.0  0.21880  0.80806  0.66817  1.0000
  H   H2272     1.0  0.38726  0.85791  0.73786  1.0000
  C   C1276     1.0  0.22670  0.92757  0.82740  1.0000
  H   H2273     1.0  0.37335  0.87680  0.74575  1.0000
  H   H2274     1.0  0.43954  0.85247  0.52659  1.0000
  H   H2275     1.0  0.45948  0.94783  0.77753  1.0000
  C   C1277     1.0  0.45591  0.95025  0.87798  1.0000
  H   H2276     1.0  0.42723  0.96226  0.68091  1.0000
  H   H2277     1.0  0.40032  0.96074  0.75257  1.0000
  C   C1278     1.0  0.43846  0.89363  0.50638  1.0000
  H   H2278     1.0  0.22159  0.88472  0.81832  1.0000
  H   H2279     1.0  0.41401  0.95047  0.75506  1.0000
  H   H2280     1.0  0.44590  0.78218  0.87044  1.0000
  C   C1279     1.0  0.21721  0.79721  0.92292  1.0000
  C   C1280     1.0  0.42221  0.97250  0.72493  1.0000
  C   C1281     1.0  0.45542  0.92967  0.72022  1.0000
  H   H2281     1.0  0.22154  0.78727  0.91640  1.0000
  H   H2282     1.0  0.41784  0.92649  0.99273  1.0000
  C   C1282     1.0  0.44997  0.85911  0.54192  1.0000
  H   H2283     1.0  0.45778  0.84326  0.94456  1.0000
  C   C1283     1.0  0.44398  0.85846  0.57691  1.0000
  S   S282      1.0  0.46186  0.91216  0.92622  1.0000
  C   C1284     1.0  0.46181  0.95269  0.84278  1.0000
  C   C1285     1.0  0.46247  0.85106  0.53805  1.0000
  H   H2284     1.0  0.46198  0.94573  0.64394  1.0000
  C   C1286     1.0  0.46066  0.80834  0.86383  1.0000
  C   C1287     1.0  0.46080  0.81341  0.89997  1.0000
  Fe  Fe139     1.0  0.70402  0.13015  0.28847  1.0000
  C   C1288     1.0  0.61947  0.13628  0.32399  1.0000
  S   S283      1.0  0.67852  0.11874  0.30948  1.0000
  H   H2285     1.0  0.70743  0.07582  0.18460  1.0000
  H   H2286     1.0  0.70615  0.10972  0.17113  1.0000
  Fe  Fe140     1.0  0.58465  0.05916  0.27937  1.0000
  S   S284      1.0  0.56747  0.03629  0.25386  1.0000
  S   S285      1.0  0.60962  0.07272  0.25683  1.0000
  Fe  Fe141     1.0  0.55939  0.05865  0.32982  1.0000
  S   S286      1.0  0.54089  0.03597  0.30859  1.0000
  S   S287      1.0  0.55407  0.07322  0.37155  1.0000
  Fe  Fe142     1.0  0.56003  0.02615  0.30376  1.0000
  S   S288      1.0  0.55427  0.99885  0.31132  1.0000
  Fe  Fe143     1.0  0.54915  0.04752  0.26000  1.0000
  S   S289      1.0  0.52721  0.04128  0.22880  1.0000
  S   S290      1.0  0.57839  0.04802  0.32909  1.0000
  S   S291      1.0  0.56664  0.07119  0.28166  1.0000
  H   H2287     1.0  0.48633  0.04051  0.37268  1.0000
  S   S292      1.0  0.48255  0.07270  0.03293  1.0000
  H   H2288     1.0  0.48886  0.98237  0.28698  1.0000
  Fe  Fe144     1.0  0.48979  0.06209  0.07646  1.0000
  S   S293      1.0  0.51322  0.07419  0.10268  1.0000
  S   S294      1.0  0.48340  0.03700  0.05356  1.0000
  H   H2289     1.0  0.52449  0.99232  0.26437  1.0000
  C   C1289     1.0  0.53149  0.99542  0.35896  1.0000
  C   C1290     1.0  0.51772  0.98322  0.99975  1.0000
  H   H2290     1.0  0.53604  0.00880  0.36036  1.0000
  N   N69       1.0  0.49000  0.99248  0.49109  1.0000
  C   C1291     1.0  0.53683  0.06394  0.39606  1.0000
  C   C1292     1.0  0.52711  0.04721  0.39225  1.0000
  C   C1293     1.0  0.51316  0.04024  0.41103  1.0000
  C   C1294     1.0  0.50891  0.04976  0.43438  1.0000
  C   C1295     1.0  0.51878  0.06642  0.43884  1.0000
  C   C1296     1.0  0.53266  0.07350  0.41958  1.0000
  H   H2291     1.0  0.53037  0.03962  0.37487  1.0000
  H   H2292     1.0  0.50561  0.02735  0.40762  1.0000
  H   H2293     1.0  0.47102  0.13200  0.41918  1.0000
  H   H2294     1.0  0.54015  0.08644  0.42285  1.0000
  C   C1297     1.0  0.52385  0.05074  0.19364  1.0000
  C   C1298     1.0  0.53510  0.06541  0.18122  1.0000
  C   C1299     1.0  0.53170  0.07248  0.15339  1.0000
  C   C1300     1.0  0.51706  0.06497  0.13772  1.0000
  C   C1301     1.0  0.50582  0.05031  0.15023  1.0000
  C   C1302     1.0  0.50920  0.04328  0.17804  1.0000
  H   H2295     1.0  0.54641  0.07128  0.19297  1.0000
  H   H2296     1.0  0.54046  0.08381  0.14387  1.0000
  H   H2297     1.0  0.49453  0.04438  0.13841  1.0000
  H   H2298     1.0  0.50043  0.03190  0.18735  1.0000
  C   C1303     1.0  0.65989  0.10506  0.29379  1.0000
  C   C1304     1.0  0.65636  0.10410  0.26079  1.0000
  C   C1305     1.0  0.64103  0.09393  0.24994  1.0000
  C   C1306     1.0  0.62904  0.08448  0.27178  1.0000
  C   C1307     1.0  0.63271  0.08513  0.30462  1.0000
  C   C1308     1.0  0.64793  0.09548  0.31554  1.0000
  H   H2299     1.0  0.66530  0.11150  0.24373  1.0000
  H   H2300     1.0  0.63839  0.09359  0.22446  1.0000
  H   H2301     1.0  0.62380  0.07769  0.32165  1.0000
  H   H2302     1.0  0.65049  0.09607  0.34111  1.0000
  H   H2303     1.0  0.56881  0.12647  0.39261  1.0000
  H   H2304     1.0  0.51465  0.99206  0.39835  1.0000
  H   H2305     1.0  0.48982  0.06682  0.40202  1.0000
  H   H2306     1.0  0.51122  0.00177  0.08052  1.0000
  C   C1309     1.0  0.65356  0.05522  0.20607  1.0000
  C   C1310     1.0  0.60035  0.09103  0.35408  1.0000
  N   N70       1.0  0.49728  0.05258  0.30613  1.0000
  C   C1311     1.0  0.48213  0.04606  0.28707  1.0000
  C   C1312     1.0  0.49458  0.06049  0.33743  1.0000
  C   C1313     1.0  0.50943  0.06612  0.28635  1.0000
  C   C1314     1.0  0.50370  0.03940  0.31251  1.0000
  C   C1315     1.0  0.49142  0.02154  0.31853  1.0000
  C   C1316     1.0  0.48381  0.04024  0.25179  1.0000
  C   C1317     1.0  0.52561  0.07581  0.30261  1.0000
  H   H2307     1.0  0.56912  0.13168  0.35050  1.0000
  C   C1318     1.0  0.58793  0.12358  0.36426  1.0000
  C   C1319     1.0  0.49931  0.01052  0.33213  1.0000
  H   H2308     1.0  0.63369  0.03814  0.23430  1.0000
  C   C1320     1.0  0.53730  0.08764  0.27864  1.0000
  H   H2309     1.0  0.49018  0.99811  0.33746  1.0000
  H   H2310     1.0  0.51927  0.99147  0.46071  1.0000
  H   H2311     1.0  0.50565  0.06543  0.35177  1.0000
  H   H2312     1.0  0.49149  0.07132  0.33198  1.0000
  H   H2313     1.0  0.50449  0.07535  0.27899  1.0000
  H   H2314     1.0  0.51231  0.06091  0.26338  1.0000
  H   H2315     1.0  0.51116  0.03823  0.29167  1.0000
  H   H2316     1.0  0.51186  0.04324  0.33340  1.0000
  H   H2317     1.0  0.59616  0.13640  0.37015  1.0000
  C   C1321     1.0  0.50068  0.00485  0.07660  1.0000
  H   H2318     1.0  0.48932  0.05115  0.23593  1.0000
  H   H2319     1.0  0.49142  0.03294  0.25055  1.0000
  H   H2320     1.0  0.53094  0.06724  0.31145  1.0000
  H   H2321     1.0  0.52428  0.08352  0.32329  1.0000
  H   H2322     1.0  0.68428  0.05032  0.20353  1.0000
  H   H2323     1.0  0.51560  0.07391  0.45668  1.0000
  H   H2324     1.0  0.61730  0.08353  0.37907  1.0000
  H   H2325     1.0  0.68048  0.07354  0.18046  1.0000
  H   H2326     1.0  0.68075  0.05922  0.29478  1.0000
  C   C1322     1.0  0.46765  0.14249  0.42676  1.0000
  C   C1323     1.0  0.57099  0.12295  0.36749  1.0000
  C   C1324     1.0  0.53797  0.98753  0.33635  1.0000
  H   H2327     1.0  0.70615  0.04026  0.20458  1.0000
  C   C1325     1.0  0.47532  0.99625  0.48707  1.0000
  H   H2328     1.0  0.52889  0.01713  0.42725  1.0000
  H   H2329     1.0  0.53255  0.09668  0.26964  1.0000
  H   H2330     1.0  0.54871  0.09459  0.29088  1.0000
  H   H2331     1.0  0.53959  0.08064  0.25766  1.0000
  H   H2332     1.0  0.61409  0.11587  0.37238  1.0000
  C   C1326     1.0  0.51552  0.99348  0.24787  1.0000
  H   H2333     1.0  0.49138  0.99824  0.09483  1.0000
  H   H2334     1.0  0.56226  0.11021  0.36240  1.0000
  C   C1327     1.0  0.49428  0.99961  0.04250  1.0000
  H   H2335     1.0  0.53313  0.02964  0.46387  1.0000
  H   H2336     1.0  0.61535  0.14428  0.30913  1.0000
  H   H2337     1.0  0.68627  0.09222  0.26137  1.0000
  H   H2338     1.0  0.50550  0.01582  0.35498  1.0000
  C   C1328     1.0  0.70857  0.09853  0.16451  1.0000
  H   H2339     1.0  0.47709  0.05578  0.28548  1.0000
  C   C1329     1.0  0.64769  0.15726  0.31594  1.0000
  H   H2340     1.0  0.47282  0.03563  0.29959  1.0000
  C   C1330     1.0  0.69303  0.08145  0.32243  1.0000
  H   H2341     1.0  0.50805  0.00910  0.31443  1.0000
  C   C1331     1.0  0.47870  0.05958  0.38904  1.0000
  C   C1332     1.0  0.48192  0.04929  0.36140  1.0000
  C   C1333     1.0  0.46770  0.02968  0.23749  1.0000
  H   H2342     1.0  0.61789  0.11019  0.22643  1.0000
  H   H2343     1.0  0.71158  0.06734  0.23237  1.0000
  H   H2344     1.0  0.60489  0.09044  0.40557  1.0000
  H   H2345     1.0  0.51842  0.01116  0.02400  1.0000
  H   H2346     1.0  0.62371  0.10827  0.34236  1.0000
  H   H2347     1.0  0.47018  0.05123  0.40676  1.0000
  C   C1334     1.0  0.53203  0.01748  0.45314  1.0000
  H   H2348     1.0  0.62034  0.14149  0.34903  1.0000
  C   C1335     1.0  0.60586  0.11046  0.22944  1.0000
  H   H2349     1.0  0.61931  0.10914  0.28642  1.0000
  H   H2350     1.0  0.70524  0.08188  0.31806  1.0000
  C   C1336     1.0  0.57598  0.99377  0.38923  1.0000
  H   H2351     1.0  0.57150  0.00201  0.37607  1.0000
  C   C1337     1.0  0.63590  0.04747  0.21502  1.0000
  C   C1338     1.0  0.60519  0.08346  0.38293  1.0000
  H   H2352     1.0  0.48322  0.00200  0.04081  1.0000
  H   H2353     1.0  0.58201  0.10595  0.32397  1.0000
  C   C1339     1.0  0.70551  0.04122  0.23142  1.0000
  S   S295      1.0  0.46635  0.05587  0.10183  1.0000
  H   H2354     1.0  0.65476  0.06387  0.18595  1.0000
  H   H2355     1.0  0.48183  0.02122  0.33557  1.0000
  C   C1340     1.0  0.68852  0.08056  0.26155  1.0000
  H   H2356     1.0  0.63709  0.13535  0.28697  1.0000
  C   C1341     1.0  0.68529  0.05471  0.22923  1.0000
  H   H2357     1.0  0.64172  0.13184  0.32751  1.0000
  H   H2358     1.0  0.46467  0.97994  0.44517  1.0000
  H   H2359     1.0  0.68838  0.07497  0.34554  1.0000
  H   H2360     1.0  0.59691  0.09753  0.22923  1.0000
  H   H2361     1.0  0.66042  0.07562  0.24045  1.0000
  H   H2362     1.0  0.62898  0.04121  0.19341  1.0000
  H   H2363     1.0  0.59875  0.09770  0.29004  1.0000
  H   H2364     1.0  0.67032  0.07285  0.30014  1.0000
  S   S296      1.0  0.49070  0.04023  0.45566  1.0000
  C   C1342     1.0  0.51951  0.98594  0.38070  1.0000
  H   H2365     1.0  0.60013  0.08328  0.33238  1.0000
  H   H2366     1.0  0.48577  0.01578  0.29542  1.0000
  H   H2367     1.0  0.68341  0.09153  0.20474  1.0000
  H   H2368     1.0  0.69341  0.09425  0.32497  1.0000
  H   H2369     1.0  0.59674  0.07044  0.38593  1.0000
  H   H2370     1.0  0.58885  0.12694  0.31279  1.0000
  H   H2371     1.0  0.65986  0.15882  0.30774  1.0000
  H   H2372     1.0  0.63160  0.05716  0.22364  1.0000
  H   H2373     1.0  0.54373  0.01640  0.45444  1.0000
  H   H2374     1.0  0.70217  0.05717  0.26841  1.0000
  H   H2375     1.0  0.58923  0.11518  0.38272  1.0000
  H   H2376     1.0  0.69633  0.02968  0.24108  1.0000
  H   H2377     1.0  0.59250  0.11938  0.26249  1.0000
  H   H2378     1.0  0.50400  0.01839  0.08045  1.0000
  H   H2379     1.0  0.52108  0.99668  0.22343  1.0000
  C   C1343     1.0  0.50289  0.00421  0.46962  1.0000
  C   C1344     1.0  0.70448  0.08649  0.19277  1.0000
  H   H2380     1.0  0.64825  0.16154  0.34159  1.0000
  H   H2381     1.0  0.67644  0.04423  0.24283  1.0000
  C   C1345     1.0  0.68214  0.07238  0.29475  1.0000
  H   H2382     1.0  0.58813  0.09025  0.35902  1.0000
  C   C1346     1.0  0.63668  0.13903  0.31276  1.0000
  H   H2383     1.0  0.47624  0.00115  0.43451  1.0000
  H   H2384     1.0  0.70161  0.09247  0.14282  1.0000
  H   H2385     1.0  0.70162  0.08476  0.26111  1.0000
  H   H2386     1.0  0.61329  0.13233  0.25937  1.0000
  H   H2387     1.0  0.64356  0.16506  0.30065  1.0000
  H   H2388     1.0  0.60365  0.11702  0.20855  1.0000
  C   C1347     1.0  0.60464  0.11936  0.26103  1.0000
  H   H2389     1.0  0.49965  0.00203  0.44368  1.0000
  H   H2390     1.0  0.65732  0.04520  0.19721  1.0000
  C   C1348     1.0  0.68667  0.08049  0.20223  1.0000
  C   C1349     1.0  0.66352  0.06467  0.23543  1.0000
  H   H2391     1.0  0.47791  0.00943  0.49388  1.0000
  H   H2392     1.0  0.65895  0.05646  0.25666  1.0000
  N   N71       1.0  0.68133  0.06998  0.23214  1.0000
  C   C1350     1.0  0.70180  0.05627  0.24158  1.0000
  N   N72       1.0  0.60765  0.11857  0.32323  1.0000
  C   C1351     1.0  0.60784  0.11053  0.29065  1.0000
  C   C1352     1.0  0.61214  0.10911  0.34869  1.0000
  C   C1353     1.0  0.59124  0.11841  0.32954  1.0000
  C   C1354     1.0  0.46796  0.99305  0.45280  1.0000
  H   H2393     1.0  0.57538  0.99627  0.41562  1.0000
  H   H2394     1.0  0.50432  0.01724  0.47522  1.0000
  Fe  Fe145     1.0  0.47426  0.04677  0.01222  1.0000
  H   H2395     1.0  0.51215  0.00381  0.25654  1.0000
  H   H2396     1.0  0.46774  0.14976  0.40496  1.0000
  C   C1355     1.0  0.51951  0.00329  0.47162  1.0000
  H   H2397     1.0  0.71219  0.09288  0.21317  1.0000
  C   C1356     1.0  0.50639  0.00952  0.01608  1.0000
  H   H2398     1.0  0.49109  0.98608  0.03951  1.0000
  S   S297      1.0  0.71167  0.12355  0.23985  1.0000
  H   H2399     1.0  0.46937  0.02630  0.21195  1.0000
  H   H2400     1.0  0.47044  0.04234  0.34963  1.0000
  H   H2401     1.0  0.58852  0.99679  0.38164  1.0000
  H   H2402     1.0  0.52354  0.00414  0.49696  1.0000
  H   H2403     1.0  0.47352  0.06818  0.37967  1.0000
  H   H2404     1.0  0.51360  0.98156  0.02539  1.0000
  H   H2405     1.0  0.47660  0.15046  0.44411  1.0000
  H   H2406     1.0  0.50638  0.02229  0.01669  1.0000
  H   H2407     1.0  0.49255  0.97918  0.22906  1.0000
  H   H2408     1.0  0.52934  0.99373  0.99899  1.0000
  Fe  Fe146     1.0  0.69422  0.12520  0.78859  1.0000
  C   C1357     1.0  0.56382  0.08676  0.98109  1.0000
  S   S298      1.0  0.66899  0.11739  0.81064  1.0000
  S   S299      1.0  0.70021  0.11930  0.73799  1.0000
  H   H2409     1.0  0.64545  0.04450  0.78151  1.0000
  Fe  Fe147     1.0  0.57402  0.05673  0.78280  1.0000
  S   S300      1.0  0.55940  0.03263  0.75777  1.0000
  S   S301      1.0  0.59945  0.07059  0.76236  1.0000
  Fe  Fe148     1.0  0.54628  0.05328  0.82976  1.0000
  S   S302      1.0  0.52985  0.02926  0.80797  1.0000
  S   S303      1.0  0.54119  0.06554  0.87567  1.0000
  Fe  Fe149     1.0  0.55112  0.02245  0.80717  1.0000
  S   S304      1.0  0.54968  0.99669  0.81854  1.0000
  Fe  Fe150     1.0  0.53891  0.04093  0.75953  1.0000
  S   S305      1.0  0.52184  0.03132  0.71710  1.0000
  S   S306      1.0  0.56722  0.04567  0.83226  1.0000
  S   S307      1.0  0.55394  0.06590  0.78130  1.0000
  H   H2410     1.0  0.64164  0.11555  0.89545  1.0000
  H   H2411     1.0  0.50499  0.99000  0.75436  1.0000
  C   C1358     1.0  0.67457  0.13476  0.69136  1.0000
  Fe  Fe151     1.0  0.47984  0.05666  0.57405  1.0000
  S   S308      1.0  0.49445  0.06868  0.61839  1.0000
  S   S309      1.0  0.48226  0.03500  0.54816  1.0000
  C   C1359     1.0  0.62037  0.09991  0.92224  1.0000
  C   C1360     1.0  0.52462  0.99159  0.86109  1.0000
  H   H2412     1.0  0.67357  0.12173  0.68939  1.0000
  H   H2413     1.0  0.52658  0.00444  0.85768  1.0000
  C   C1361     1.0  0.53425  0.98470  0.84479  1.0000
  C   C1362     1.0  0.52330  0.05766  0.89897  1.0000
  C   C1363     1.0  0.52236  0.06534  0.92882  1.0000
  C   C1364     1.0  0.50844  0.05946  0.94818  1.0000
  C   C1365     1.0  0.49512  0.04605  0.93748  1.0000
  C   C1366     1.0  0.49601  0.03843  0.90753  1.0000
  C   C1367     1.0  0.51007  0.04405  0.88856  1.0000
  H   H2414     1.0  0.53242  0.07597  0.93698  1.0000
  H   H2415     1.0  0.50792  0.06549  0.97110  1.0000
  H   H2416     1.0  0.48571  0.02819  0.89882  1.0000
  H   H2417     1.0  0.51055  0.03807  0.86558  1.0000
  C   C1368     1.0  0.51477  0.04218  0.68964  1.0000
  C   C1369     1.0  0.51721  0.05887  0.69428  1.0000
  C   C1370     1.0  0.51095  0.06680  0.67222  1.0000
  C   C1371     1.0  0.50230  0.05820  0.64520  1.0000
  C   C1372     1.0  0.50002  0.04155  0.64039  1.0000
  C   C1373     1.0  0.50610  0.03357  0.66264  1.0000
  H   H2418     1.0  0.52381  0.06563  0.71497  1.0000
  H   H2419     1.0  0.51281  0.07968  0.67613  1.0000
  H   H2420     1.0  0.49358  0.03483  0.61955  1.0000
  H   H2421     1.0  0.50422  0.02069  0.65877  1.0000
  C   C1374     1.0  0.64999  0.10352  0.79695  1.0000
  C   C1375     1.0  0.64727  0.09790  0.76478  1.0000
  C   C1376     1.0  0.63178  0.08779  0.75479  1.0000
  C   C1377     1.0  0.61882  0.08288  0.77681  1.0000
  C   C1378     1.0  0.62163  0.08819  0.80911  1.0000
  C   C1379     1.0  0.63705  0.09854  0.81898  1.0000
  H   H2422     1.0  0.65702  0.10155  0.74748  1.0000
  H   H2423     1.0  0.62978  0.08379  0.72971  1.0000
  H   H2424     1.0  0.61188  0.08441  0.82635  1.0000
  H   H2425     1.0  0.63901  0.10267  0.84391  1.0000
  N   N73       1.0  0.66515  0.16077  0.76135  1.0000
  C   C1380     1.0  0.66960  0.15587  0.72840  1.0000
  C   C1381     1.0  0.66305  0.17695  0.75842  1.0000
  C   C1382     1.0  0.67822  0.16236  0.78451  1.0000
  C   C1383     1.0  0.64986  0.14789  0.77406  1.0000
  C   C1384     1.0  0.63523  0.14356  0.75199  1.0000
  C   C1385     1.0  0.66903  0.13796  0.72509  1.0000
  C   C1386     1.0  0.67684  0.16933  0.81886  1.0000
  C   C1387     1.0  0.67825  0.19213  0.74931  1.0000
  C   C1388     1.0  0.62109  0.12896  0.76545  1.0000
  C   C1389     1.0  0.69084  0.17048  0.83976  1.0000
  H   H2426     1.0  0.66196  0.15755  0.70928  1.0000
  H   H2427     1.0  0.69004  0.17005  0.77398  1.0000
  H   H2428     1.0  0.67876  0.15007  0.78822  1.0000
  H   H2429     1.0  0.65150  0.13626  0.77969  1.0000
  H   H2430     1.0  0.64638  0.15203  0.79759  1.0000
  H   H2431     1.0  0.63766  0.14016  0.72702  1.0000
  H   H2432     1.0  0.63159  0.15427  0.75064  1.0000
  H   H2433     1.0  0.67677  0.13568  0.74303  1.0000
  H   H2434     1.0  0.65679  0.12872  0.72874  1.0000
  H   H2435     1.0  0.66591  0.16115  0.83161  1.0000
  H   H2436     1.0  0.68307  0.19015  0.72538  1.0000
  H   H2437     1.0  0.62392  0.11770  0.76605  1.0000
  H   H2438     1.0  0.61786  0.13179  0.79031  1.0000
  H   H2439     1.0  0.61067  0.12624  0.74966  1.0000
  H   H2440     1.0  0.68717  0.14301  0.68700  1.0000
  H   H2441     1.0  0.69107  0.15798  0.84304  1.0000
  H   H2442     1.0  0.53977  0.04520  0.94737  1.0000
  H   H2443     1.0  0.49651  0.98658  0.59070  1.0000
  H   H2444     1.0  0.48432  0.01132  0.97863  1.0000
  H   H2445     1.0  0.65790  0.17996  0.78121  1.0000
  H   H2446     1.0  0.66963  0.03543  0.73915  1.0000
  H   H2447     1.0  0.67586  0.08627  0.72661  1.0000
  H   H2448     1.0  0.58996  0.10956  0.94421  1.0000
  H   H2449     1.0  0.66538  0.07226  0.67460  1.0000
  H   H2450     1.0  0.46569  0.98895  0.50395  1.0000
  C   C1390     1.0  0.47584  0.99690  0.72768  1.0000
  H   H2451     1.0  0.68191  0.16422  0.72147  1.0000
  C   C1391     1.0  0.58264  0.10015  0.88115  1.0000
  N   N74       1.0  0.59132  0.09358  0.90444  1.0000
  H   H2452     1.0  0.66572  0.20629  0.72838  1.0000
  H   H2453     1.0  0.46981  0.17606  0.92288  1.0000
  H   H2454     1.0  0.68763  0.19455  0.76758  1.0000
  H   H2455     1.0  0.61761  0.02899  0.76667  1.0000
  C   C1392     1.0  0.49067  0.99540  0.58659  1.0000
  H   H2456     1.0  0.68485  0.10150  0.67348  1.0000
  H   H2457     1.0  0.60010  0.06998  0.93741  1.0000
  C   C1393     1.0  0.54151  0.03376  0.93971  1.0000
  H   H2458     1.0  0.51136  0.01071  0.93332  1.0000
  C   C1394     1.0  0.67498  0.04642  0.72340  1.0000
  H   H2459     1.0  0.69034  0.03225  0.67970  1.0000
  H   H2460     1.0  0.62328  0.05077  0.75986  1.0000
  Fe  Fe152     1.0  0.48079  0.04750  0.50212  1.0000
  H   H2461     1.0  0.58458  0.11324  0.88743  1.0000
  H   H2462     1.0  0.49958  0.00830  0.58881  1.0000
  C   C1395     1.0  0.58889  0.06444  0.92410  1.0000
  C   C1396     1.0  0.46302  0.98898  0.93604  1.0000
  C   C1397     1.0  0.62528  0.03953  0.75164  1.0000
  H   H2463     1.0  0.49477  0.01184  0.75962  1.0000
  H   H2464     1.0  0.67027  0.21064  0.77095  1.0000
  H   H2465     1.0  0.69858  0.05185  0.74405  1.0000
  C   C1398     1.0  0.67992  0.07635  0.71827  1.0000
  H   H2466     1.0  0.68955  0.06806  0.77297  1.0000
  H   H2467     1.0  0.58526  0.08658  0.83696  1.0000
  C   C1399     1.0  0.53201  0.01942  0.96180  1.0000
  H   H2468     1.0  0.47396  0.97963  0.55227  1.0000
  H   H2469     1.0  0.70096  0.09433  0.66975  1.0000
  H   H2470     1.0  0.51520  0.99220  0.79230  1.0000
  C   C1400     1.0  0.69291  0.04959  0.71999  1.0000
  H   H2471     1.0  0.66711  0.13683  0.67239  1.0000
  H   H2472     1.0  0.66938  0.04230  0.69940  1.0000
  H   H2473     1.0  0.70223  0.17871  0.82849  1.0000
  H   H2474     1.0  0.67670  0.18193  0.81776  1.0000
  C   C1401     1.0  0.68822  0.09121  0.66469  1.0000
  C   C1402     1.0  0.48302  0.99239  0.55326  1.0000
  H   H2475     1.0  0.62163  0.03676  0.72598  1.0000
  H   H2476     1.0  0.61296  0.10288  0.87538  1.0000
  H   H2477     1.0  0.65422  0.17588  0.73944  1.0000
  C   C1403     1.0  0.67181  0.07659  0.79098  1.0000
  C   C1404     1.0  0.57585  0.10451  0.82364  1.0000
  H   H2478     1.0  0.56227  0.07584  0.93348  1.0000
  H   H2479     1.0  0.48683  0.00309  0.92131  1.0000
  H   H2480     1.0  0.68573  0.21844  0.74057  1.0000
  H   H2481     1.0  0.65883  0.07340  0.79109  1.0000
  H   H2482     1.0  0.57537  0.06949  0.88714  1.0000
  C   C1405     1.0  0.67641  0.06364  0.77168  1.0000
  N   N75       1.0  0.67123  0.06071  0.73686  1.0000
  H   H2483     1.0  0.67190  0.05183  0.78526  1.0000
  H   H2484     1.0  0.56964  0.09311  0.88332  1.0000
  H   H2485     1.0  0.67398  0.08743  0.83929  1.0000
  C   C1406     1.0  0.58770  0.07558  0.89626  1.0000
  H   H2486     1.0  0.65076  0.06753  0.73959  1.0000
  S   S310      1.0  0.47721  0.03834  0.96064  1.0000
  C   C1407     1.0  0.67470  0.20779  0.74722  1.0000
  H   H2487     1.0  0.61089  0.11735  0.90422  1.0000
  H   H2488     1.0  0.64389  0.03028  0.74833  1.0000
  H   H2489     1.0  0.64984  0.05299  0.70866  1.0000
  C   C1408     1.0  0.67682  0.07764  0.82629  1.0000
  C   C1409     1.0  0.65364  0.05647  0.73411  1.0000
  H   H2490     1.0  0.67038  0.06567  0.83854  1.0000
  C   C1410     1.0  0.67789  0.07500  0.68094  1.0000
  C   C1411     1.0  0.58673  0.09934  0.84454  1.0000
  H   H2491     1.0  0.50352  0.00916  0.52911  1.0000
  H   H2492     1.0  0.59740  0.04881  0.89340  1.0000
  S   S311      1.0  0.48043  0.07048  0.52767  1.0000
  C   C1412     1.0  0.64268  0.04205  0.75544  1.0000
  H   H2493     1.0  0.67782  0.08906  0.78047  1.0000
  H   H2494     1.0  0.70822  0.03734  0.70248  1.0000
  C   C1413     1.0  0.48082  0.99340  0.93936  1.0000
  H   H2495     1.0  0.68142  0.06518  0.67017  1.0000
  C   C1414     1.0  0.48636  0.99969  0.97421  1.0000
  H   H2496     1.0  0.68980  0.08082  0.82778  1.0000
  H   H2497     1.0  0.48144  0.99369  0.60565  1.0000
  H   H2498     1.0  0.69283  0.08130  0.72350  1.0000
  H   H2499     1.0  0.57886  0.10362  0.79762  1.0000
  C   C1415     1.0  0.50524  0.98601  0.97828  1.0000
  C   C1416     1.0  0.69532  0.03470  0.70447  1.0000
  H   H2500     1.0  0.59549  0.07458  0.87585  1.0000
  H   H2501     1.0  0.57731  0.11748  0.82932  1.0000
  H   H2502     1.0  0.61661  0.09866  0.94803  1.0000
  H   H2503     1.0  0.57609  0.04090  0.89935  1.0000
  H   H2504     1.0  0.56323  0.09621  0.82774  1.0000
  H   H2505     1.0  0.59904  0.10789  0.83883  1.0000
  H   H2506     1.0  0.68663  0.08994  0.63804  1.0000
  H   H2507     1.0  0.58861  0.03982  0.93152  1.0000
  C   C1417     1.0  0.60881  0.10401  0.90046  1.0000
  C   C1418     1.0  0.63702  0.11354  0.92076  1.0000
  H   H2508     1.0  0.57907  0.06230  0.94195  1.0000
  C   C1419     1.0  0.58768  0.04749  0.91118  1.0000
  H   H2509     1.0  0.69936  0.06041  0.70457  1.0000
  H   H2510     1.0  0.68969  0.17564  0.86406  1.0000
  H   H2511     1.0  0.53786  0.03076  0.91406  1.0000
  H   H2512     1.0  0.63690  0.12536  0.93093  1.0000
  H   H2513     1.0  0.46587  0.01740  0.68651  1.0000
  H   H2514     1.0  0.53488  0.00864  0.95401  1.0000
  C   C1420     1.0  0.48161  0.00663  0.75928  1.0000
  S   S312      1.0  0.71176  0.11667  0.81202  1.0000
  H   H2515     1.0  0.47143  0.10901  0.97459  1.0000
  H   H2516     1.0  0.53615  0.02319  0.98683  1.0000
  H   H2517     1.0  0.47798  0.99035  0.99058  1.0000
  H   H2518     1.0  0.64524  0.10991  0.93527  1.0000
  H   H2519     1.0  0.50320  0.98875  0.53121  1.0000
  H   H2520     1.0  0.55431  0.03614  0.94124  1.0000
  H   H2521     1.0  0.48117  0.00543  0.70739  1.0000
  H   H2522     1.0  0.56208  0.09628  0.93456  1.0000
  C   C1421     1.0  0.58598  0.09608  0.93834  1.0000
  N   N76       1.0  0.50326  0.00235  0.98212  1.0000
  C   C1422     1.0  0.56777  0.08831  0.94483  1.0000
  H   H2523     1.0  0.47711  0.99849  0.78055  1.0000
  C   C1423     1.0  0.51399  0.01501  0.95880  1.0000
  C   C1424     1.0  0.49570  0.99582  0.52574  1.0000
  H   H2524     1.0  0.48324  0.98219  0.93302  1.0000
  H   H2525     1.0  0.46835  0.16323  0.88703  1.0000
  H   H2526     1.0  0.47186  0.98302  0.67193  1.0000
  H   H2527     1.0  0.47766  0.01716  0.76128  1.0000
  H   H2528     1.0  0.62139  0.08826  0.91346  1.0000
  H   H2529     1.0  0.59165  0.09119  0.95667  1.0000
  H   H2530     1.0  0.51180  0.02670  0.96101  1.0000
  H   H2531     1.0  0.47685  0.00101  0.55153  1.0000
  H   H2532     1.0  0.50511  0.98732  0.89448  1.0000
  H   H2533     1.0  0.68959  0.02351  0.71948  1.0000
  H   H2534     1.0  0.47046  0.00599  0.65346  1.0000
  H   H2535     1.0  0.56855  0.07821  0.99235  1.0000
  H   H2536     1.0  0.50821  0.98420  0.95260  1.0000
  H   H2537     1.0  0.46651  0.03182  0.63735  1.0000
  H   H2538     1.0  0.55073  0.08166  0.98482  1.0000
  H   H2539     1.0  0.48052  0.98690  0.72629  1.0000
  H   H2540     1.0  0.52394  0.98822  0.75529  1.0000
  C   C1425     1.0  0.51254  0.98543  0.76872  1.0000
  H   H2541     1.0  0.56885  0.09908  0.99336  1.0000
  C   C1426     1.0  0.51254  0.98189  0.88223  1.0000
  S   S313      1.0  0.71206  0.15176  0.78777  1.0000
  H   H2542     1.0  0.46354  0.30768  0.67796  1.0000
  Fe  Fe153     1.0  0.47971  0.39351  0.32835  1.0000
  S   S314      1.0  0.47953  0.41357  0.29551  1.0000
  S   S315      1.0  0.49836  0.39767  0.36706  1.0000
  Fe  Fe154     1.0  0.47418  0.39437  0.25582  1.0000
  S   S316      1.0  0.48298  0.40027  0.20339  1.0000
  S   S317      1.0  0.47629  0.37462  0.28780  1.0000
  Fe  Fe155     1.0  0.57311  0.48468  0.04071  1.0000
  H   H2543     1.0  0.56331  0.41063  0.28258  1.0000
  H   H2544     1.0  0.46314  0.62625  0.29498  1.0000
  Fe  Fe156     1.0  0.54947  0.46531  0.09494  1.0000
  S   S318      1.0  0.52806  0.46238  0.06618  1.0000
  S   S319      1.0  0.54652  0.45580  0.14693  1.0000
  Fe  Fe157     1.0  0.54087  0.45667  0.02350  1.0000
  H   H2545     1.0  0.47320  0.45516  0.21138  1.0000
  Fe  Fe158     1.0  0.54128  0.48900  0.05363  1.0000
  S   S320      1.0  0.52686  0.50486  0.04837  1.0000
  S   S321      1.0  0.56161  0.45754  0.05327  1.0000
  S   S322      1.0  0.56237  0.49270  0.08476  1.0000
  H   H2546     1.0  0.50968  0.45655  0.16143  1.0000
  H   H2547     1.0  0.56560  0.41340  0.00981  1.0000
  H   H2548     1.0  0.49938  0.58218  0.28720  1.0000
  H   H2549     1.0  0.47143  0.59903  0.21337  1.0000
  H   H2550     1.0  0.48830  0.50906  0.24391  1.0000
  Fe  Fe159     1.0  0.48392  0.54128  0.17283  1.0000
  S   S323      1.0  0.48101  0.55673  0.13244  1.0000
  S   S324      1.0  0.49850  0.52552  0.17606  1.0000
  Fe  Fe160     1.0  0.48364  0.57637  0.17114  1.0000
  S   S325      1.0  0.49736  0.60395  0.15961  1.0000
  S   S326      1.0  0.48864  0.56167  0.21010  1.0000
  C   C1427     1.0  0.50902  0.62189  0.18249  1.0000
  S   S327      1.0  0.55267  0.48313  0.00889  1.0000
  C   C1428     1.0  0.51354  0.62096  0.21428  1.0000
  S   S328      1.0  0.56016  0.49838  0.49251  1.0000
  H   H2551     1.0  0.51046  0.60898  0.22506  1.0000
  C   C1429     1.0  0.61777  0.50845  0.02175  1.0000
  H   H2552     1.0  0.46979  0.50239  0.32255  1.0000
  H   H2553     1.0  0.64744  0.53982  0.43369  1.0000
  H   H2554     1.0  0.47833  0.64372  0.23122  1.0000
  H   H2555     1.0  0.66220  0.61717  0.43534  1.0000
  H   H2556     1.0  0.64381  0.52785  0.08200  1.0000
  H   H2557     1.0  0.68139  0.55393  0.40533  1.0000
  H   H2558     1.0  0.53358  0.44574  0.34856  1.0000
  H   H2559     1.0  0.47313  0.45123  0.47823  1.0000
  H   H2560     1.0  0.47654  0.52983  0.24821  1.0000
  C   C1430     1.0  0.51919  0.51082  0.08390  1.0000
  C   C1431     1.0  0.52406  0.50832  0.11448  1.0000
  C   C1432     1.0  0.51786  0.51323  0.14251  1.0000
  C   C1433     1.0  0.50671  0.52056  0.14017  1.0000
  C   C1434     1.0  0.50183  0.52308  0.10957  1.0000
  C   C1435     1.0  0.50809  0.51825  0.08151  1.0000
  H   H2561     1.0  0.53281  0.50288  0.11639  1.0000
  H   H2562     1.0  0.52184  0.51149  0.16608  1.0000
  H   H2563     1.0  0.49320  0.52868  0.10750  1.0000
  H   H2564     1.0  0.50433  0.52027  0.05788  1.0000
  C   C1436     1.0  0.50068  0.41588  0.18827  1.0000
  C   C1437     1.0  0.50360  0.41700  0.15463  1.0000
  C   C1438     1.0  0.51753  0.42915  0.14161  1.0000
  C   C1439     1.0  0.52892  0.44010  0.16219  1.0000
  C   C1440     1.0  0.52603  0.43890  0.19589  1.0000
  C   C1441     1.0  0.51181  0.42715  0.20876  1.0000
  H   H2565     1.0  0.49505  0.40840  0.13849  1.0000
  H   H2566     1.0  0.51957  0.42991  0.11567  1.0000
  H   H2567     1.0  0.53465  0.44743  0.21200  1.0000
  H   H2568     1.0  0.50939  0.42677  0.23446  1.0000
  C   C1442     1.0  0.50608  0.41600  0.39111  1.0000
  C   C1443     1.0  0.51620  0.41683  0.41688  1.0000
  C   C1444     1.0  0.52240  0.43118  0.43664  1.0000
  C   C1445     1.0  0.51859  0.44488  0.43064  1.0000
  C   C1446     1.0  0.50866  0.44411  0.40456  1.0000
  C   C1447     1.0  0.50240  0.42975  0.38496  1.0000
  H   H2569     1.0  0.51912  0.40624  0.42183  1.0000
  H   H2570     1.0  0.53002  0.43161  0.45663  1.0000
  H   H2571     1.0  0.50573  0.45469  0.39967  1.0000
  H   H2572     1.0  0.49461  0.42926  0.36527  1.0000
  C   C1448     1.0  0.48188  0.52728  0.27029  1.0000
  C   C1449     1.0  0.51367  0.63760  0.16838  1.0000
  C   C1450     1.0  0.68609  0.50251  0.03564  1.0000
  S   S329      1.0  0.52528  0.46307  0.45526  1.0000
  H   H2573     1.0  0.47363  0.47901  0.24008  1.0000
  C   C1451     1.0  0.52319  0.47943  0.18522  1.0000
  H   H2574     1.0  0.47159  0.46079  0.42694  1.0000
  S   S330      1.0  0.67087  0.54232  0.03905  1.0000
  H   H2575     1.0  0.63326  0.50455  0.46932  1.0000
  C   C1452     1.0  0.48257  0.50985  0.26773  1.0000
  H   H2576     1.0  0.48256  0.45709  0.37223  1.0000
  Fe  Fe161     1.0  0.69638  0.55684  0.01874  1.0000
  C   C1453     1.0  0.48324  0.47806  0.28694  1.0000
  H   H2577     1.0  0.64258  0.61669  0.44374  1.0000
  H   H2578     1.0  0.58401  0.43791  0.26636  1.0000
  C   C1454     1.0  0.53322  0.44645  0.32176  1.0000
  H   H2579     1.0  0.49241  0.44613  0.05277  1.0000
  H   H2580     1.0  0.69918  0.56064  0.17325  1.0000
  C   C1455     1.0  0.49849  0.54079  0.27317  1.0000
  H   H2581     1.0  0.50330  0.49759  0.46731  1.0000
  C   C1456     1.0  0.55427  0.41016  0.34550  1.0000
  C   C1457     1.0  0.51971  0.40056  0.26171  1.0000
  C   C1458     1.0  0.55662  0.62671  0.20626  1.0000
  C   C1459     1.0  0.50897  0.49682  0.49039  1.0000
  H   H2582     1.0  0.49099  0.50963  0.28659  1.0000
  C   C1460     1.0  0.49747  0.59388  0.29109  1.0000
  H   H2583     1.0  0.49869  0.46317  0.10287  1.0000
  H   H2584     1.0  0.49595  0.43468  0.08543  1.0000
  H   H2585     1.0  0.47284  0.58258  0.28061  1.0000
  H   H2586     1.0  0.49512  0.48582  0.27686  1.0000
  H   H2587     1.0  0.66752  0.59182  0.44219  1.0000
  C   C1461     1.0  0.47114  0.40598  0.43519  1.0000
  S   S331      1.0  0.70612  0.56465  0.46535  1.0000
  H   H2588     1.0  0.56504  0.40261  0.38530  1.0000
  H   H2589     1.0  0.48190  0.62056  0.21574  1.0000
  C   C1462     1.0  0.47006  0.47973  0.26586  1.0000
  H   H2590     1.0  0.54523  0.40152  0.39397  1.0000
  H   H2591     1.0  0.61543  0.50979  0.07358  1.0000
  H   H2592     1.0  0.54284  0.60167  0.22200  1.0000
  H   H2593     1.0  0.52247  0.45774  0.28786  1.0000
  H   H2594     1.0  0.50408  0.45833  0.20323  1.0000
  H   H2595     1.0  0.51028  0.44869  0.32309  1.0000
  C   C1463     1.0  0.63812  0.55769  0.47635  1.0000
  H   H2596     1.0  0.48911  0.64361  0.26705  1.0000
  H   H2597     1.0  0.50578  0.54070  0.25128  1.0000
  H   H2598     1.0  0.49759  0.55307  0.27531  1.0000
  H   H2599     1.0  0.50446  0.53901  0.29508  1.0000
  H   H2600     1.0  0.68075  0.60093  0.48779  1.0000
  N   N77       1.0  0.46656  0.61036  0.25722  1.0000
  H   H2601     1.0  0.50797  0.37365  0.26388  1.0000
  C   C1464     1.0  0.48223  0.46022  0.28760  1.0000
  H   H2602     1.0  0.60524  0.55152  0.47828  1.0000
  H   H2603     1.0  0.57270  0.43760  0.23063  1.0000
  H   H2604     1.0  0.48566  0.44370  0.45568  1.0000
  H   H2605     1.0  0.63152  0.55556  0.45322  1.0000
  C   C1465     1.0  0.49451  0.47055  0.16785  1.0000
  H   H2606     1.0  0.47860  0.45859  0.08989  1.0000
  H   H2607     1.0  0.50839  0.60436  0.28332  1.0000
  H   H2608     1.0  0.48388  0.42292  0.49459  1.0000
  C   C1466     1.0  0.56684  0.42637  0.00590  1.0000
  C   C1467     1.0  0.46412  0.62582  0.26808  1.0000
  C   C1468     1.0  0.52258  0.45577  0.31434  1.0000
  C   C1469     1.0  0.65839  0.55059  0.42728  1.0000
  H   H2609     1.0  0.70955  0.57475  0.14160  1.0000
  H   H2610     1.0  0.47444  0.43342  0.40703  1.0000
  N   N78       1.0  0.46691  0.49531  0.27162  1.0000
  C   C1470     1.0  0.64938  0.60907  0.43585  1.0000
  H   H2611     1.0  0.47942  0.61205  0.30160  1.0000
  H   H2612     1.0  0.46535  0.49505  0.48669  1.0000
  C   C1471     1.0  0.66508  0.56203  0.45728  1.0000
  C   C1472     1.0  0.56018  0.41857  0.26589  1.0000
  H   H2613     1.0  0.69924  0.50747  0.03448  1.0000
  H   H2614     1.0  0.52709  0.46803  0.32688  1.0000
  H   H2615     1.0  0.52586  0.38103  0.23902  1.0000
  C   C1473     1.0  0.51510  0.38329  0.24650  1.0000
  H   H2616     1.0  0.54534  0.45385  0.31253  1.0000
  H   H2617     1.0  0.52823  0.48530  0.16181  1.0000
  C   C1474     1.0  0.48777  0.44028  0.07646  1.0000
  N   N79       1.0  0.47865  0.45700  0.16012  1.0000
  H   H2618     1.0  0.53616  0.39497  0.29166  1.0000
  C   C1475     1.0  0.67040  0.54372  0.41378  1.0000
  H   H2619     1.0  0.56611  0.41719  0.33454  1.0000
  H   H2620     1.0  0.70552  0.49147  0.00051  1.0000
  C   C1476     1.0  0.47018  0.61067  0.22135  1.0000
  H   H2621     1.0  0.54285  0.61751  0.25063  1.0000
  H   H2622     1.0  0.67685  0.57133  0.44969  1.0000
  H   H2623     1.0  0.65560  0.55736  0.40752  1.0000
  H   H2624     1.0  0.54952  0.43207  0.34955  1.0000
  H   H2625     1.0  0.47981  0.49133  0.15221  1.0000
  H   H2626     1.0  0.68137  0.48885  0.03747  1.0000
  H   H2627     1.0  0.48253  0.48227  0.31226  1.0000
  C   C1477     1.0  0.46319  0.61423  0.16349  1.0000
  H   H2628     1.0  0.48185  0.48206  0.11423  1.0000
  H   H2629     1.0  0.46892  0.55385  0.00053  1.0000
  H   H2630     1.0  0.68715  0.52293  0.06807  1.0000
  C   C1478     1.0  0.48320  0.59320  0.27158  1.0000
  H   H2631     1.0  0.56173  0.42139  0.39326  1.0000
  C   C1479     1.0  0.46389  0.45156  0.40941  1.0000
  H   H2632     1.0  0.49166  0.61961  0.26710  1.0000
  H   H2633     1.0  0.66763  0.55436  0.47579  1.0000
  C   C1480     1.0  0.48001  0.44547  0.13358  1.0000
  C   C1481     1.0  0.65044  0.52941  0.03136  1.0000
  H   H2634     1.0  0.56411  0.62262  0.18947  1.0000
  H   H2635     1.0  0.47478  0.52840  0.29170  1.0000
  H   H2636     1.0  0.52706  0.40974  0.24384  1.0000
  H   H2637     1.0  0.53245  0.41369  0.35598  1.0000
  H   H2638     1.0  0.52158  0.48872  0.20212  1.0000
  C   C1482     1.0  0.64617  0.59487  0.45944  1.0000
  H   H2639     1.0  0.47475  0.62481  0.16032  1.0000
  H   H2640     1.0  0.64974  0.57797  0.42517  1.0000
  H   H2641     1.0  0.47927  0.38575  0.43103  1.0000
  C   C1483     1.0  0.47042  0.45700  0.37534  1.0000
  H   H2642     1.0  0.51936  0.39543  0.31265  1.0000
  H   H2643     1.0  0.47040  0.45176  0.29657  1.0000
  H   H2644     1.0  0.49290  0.47911  0.18673  1.0000
  C   C1484     1.0  0.70908  0.57263  0.16813  1.0000
  H   H2645     1.0  0.57624  0.43464  0.02207  1.0000
  C   C1485     1.0  0.57538  0.42979  0.24862  1.0000
  H   H2646     1.0  0.50785  0.38231  0.22468  1.0000
  H   H2647     1.0  0.66523  0.53527  0.39293  1.0000
  H   H2648     1.0  0.48537  0.59066  0.24591  1.0000
  H   H2649     1.0  0.48726  0.43855  0.14156  1.0000
  H   H2650     1.0  0.58093  0.42210  0.23555  1.0000
  C   C1486     1.0  0.68152  0.50920  0.06716  1.0000
  H   H2651     1.0  0.54950  0.39738  0.33542  1.0000
  C   C1487     1.0  0.65507  0.58371  0.44856  1.0000
  C   C1488     1.0  0.52227  0.63554  0.23190  1.0000
  H   H2652     1.0  0.53190  0.47499  0.19577  1.0000
  C   C1489     1.0  0.48666  0.45336  0.10054  1.0000
  H   H2653     1.0  0.70675  0.58282  0.18077  1.0000
  C   C1490     1.0  0.50749  0.46482  0.17981  1.0000
  H   H2654     1.0  0.68728  0.58434  0.49535  1.0000
  H   H2655     1.0  0.68573  0.50439  0.08820  1.0000
  C   C1491     1.0  0.55669  0.40888  0.38174  1.0000
  C   C1492     1.0  0.55028  0.61384  0.23292  1.0000
  C   C1493     1.0  0.52852  0.40218  0.29411  1.0000
  C   C1494     1.0  0.52668  0.42878  0.30644  1.0000
  H   H2656     1.0  0.54823  0.43532  0.26409  1.0000
  C   C1495     1.0  0.63964  0.52399  0.05769  1.0000
  H   H2657     1.0  0.54619  0.62664  0.19284  1.0000
  S   S332      1.0  0.71133  0.58137  0.04203  1.0000
  H   H2658     1.0  0.48310  0.41497  0.44173  1.0000
  C   C1496     1.0  0.47342  0.48152  0.13428  1.0000
  C   C1497     1.0  0.48046  0.60960  0.27525  1.0000
  C   C1498     1.0  0.46680  0.46447  0.15136  1.0000
  H   H2659     1.0  0.50861  0.40273  0.26621  1.0000
  H   H2660     1.0  0.52305  0.43009  0.28152  1.0000
  C   C1499     1.0  0.47269  0.44684  0.19033  1.0000
  H   H2661     1.0  0.52564  0.63464  0.25651  1.0000
  H   H2662     1.0  0.55236  0.41037  0.24714  1.0000
  N   N80       1.0  0.65479  0.57054  0.47185  1.0000
  H   H2663     1.0  0.66677  0.50548  0.01042  1.0000
  H   H2664     1.0  0.51550  0.42147  0.31970  1.0000
  C   C1500     1.0  0.62346  0.51371  0.05298  1.0000
  C   C1501     1.0  0.54306  0.41932  0.33991  1.0000
  H   H2665     1.0  0.56099  0.43906  0.29749  1.0000
  H   H2666     1.0  0.49127  0.45943  0.30423  1.0000
  H   H2667     1.0  0.49530  0.59526  0.31737  1.0000
  H   H2668     1.0  0.67352  0.53663  0.43257  1.0000
  H   H2669     1.0  0.49969  0.47835  0.14647  1.0000
  C   C1502     1.0  0.55183  0.42893  0.28364  1.0000
  H   H2670     1.0  0.48040  0.44006  0.19622  1.0000
  N   N81       1.0  0.53784  0.41971  0.30559  1.0000
  H   H2671     1.0  0.55533  0.42727  0.01245  1.0000
  H   H2672     1.0  0.66110  0.52210  0.48357  1.0000
  H   H2673     1.0  0.48449  0.45602  0.26313  1.0000
  H   H2674     1.0  0.57358  0.64265  0.24000  1.0000
  H   H2675     1.0  0.56023  0.61242  0.24580  1.0000
  H   H2676     1.0  0.47098  0.46971  0.37128  1.0000
  H   H2677     1.0  0.51029  0.63851  0.14376  1.0000
  H   H2678     1.0  0.64986  0.60049  0.48371  1.0000
  H   H2679     1.0  0.63319  0.58756  0.45957  1.0000
  C   C1503     1.0  0.63560  0.51184  0.49152  1.0000
  H   H2680     1.0  0.64563  0.60419  0.41101  1.0000
  C   C1504     1.0  0.47460  0.43957  0.47087  1.0000
  S   S333      1.0  0.59756  0.49495  0.01389  1.0000
  H   H2681     1.0  0.47590  0.43034  0.07259  1.0000
  H   H2682     1.0  0.63853  0.54551  0.48234  1.0000
  H   H2683     1.0  0.51290  0.48629  0.48839  1.0000
  H   H2684     1.0  0.46550  0.49830  0.10906  1.0000
  H   H2685     1.0  0.46816  0.43574  0.12843  1.0000
  H   H2686     1.0  0.66844  0.50532  0.06940  1.0000
  C   C1505     1.0  0.47740  0.64249  0.25795  1.0000
  H   H2687     1.0  0.51965  0.50834  0.49404  1.0000
  H   H2688     1.0  0.47004  0.40604  0.40843  1.0000
  Fe  Fe162     1.0  0.54248  0.47218  0.49778  1.0000
  H   H2689     1.0  0.68555  0.52188  0.00617  1.0000
  C   C1506     1.0  0.67961  0.50820  0.00582  1.0000
  C   C1507     1.0  0.46989  0.38867  0.44421  1.0000
  H   H2690     1.0  0.47159  0.38802  0.47062  1.0000
  H   H2691     1.0  0.46447  0.60266  0.15503  1.0000
  H   H2692     1.0  0.59244  0.64469  0.20120  1.0000
  C   C1508     1.0  0.56605  0.64427  0.22060  1.0000
  H   H2693     1.0  0.58443  0.64333  0.16219  1.0000
  C   C1509     1.0  0.64467  0.52425  0.00012  1.0000
  C   C1510     1.0  0.46313  0.43389  0.41641  1.0000
  Fe  Fe163     1.0  0.48793  0.41456  0.81420  1.0000
  S   S334      1.0  0.48074  0.42675  0.77343  1.0000
  S   S335      1.0  0.50631  0.43455  0.84471  1.0000
  Fe  Fe164     1.0  0.48018  0.40542  0.74202  1.0000
  S   S336      1.0  0.48573  0.40721  0.68786  1.0000
  S   S337      1.0  0.48942  0.39413  0.78127  1.0000
  Fe  Fe165     1.0  0.57738  0.49117  0.52066  1.0000
  H   H2694     1.0  0.48554  0.45425  0.53229  1.0000
  H   H2695     1.0  0.50543  0.36795  0.75724  1.0000
  Fe  Fe166     1.0  0.55096  0.47178  0.56939  1.0000
  S   S338      1.0  0.53218  0.47772  0.54469  1.0000
  S   S339      1.0  0.54739  0.45918  0.61855  1.0000
  C   C1511     1.0  0.49224  0.50897  0.52358  1.0000
  H   H2696     1.0  0.54593  0.44406  0.85682  1.0000
  Fe  Fe167     1.0  0.55083  0.50330  0.54060  1.0000
  S   S340      1.0  0.54328  0.52508  0.54573  1.0000
  S   S341      1.0  0.56019  0.46426  0.52279  1.0000
  S   S342      1.0  0.56918  0.49811  0.56867  1.0000
  H   H2697     1.0  0.46835  0.48158  0.60015  1.0000
  H   H2698     1.0  0.46452  0.51814  0.93239  1.0000
  C   C1512     1.0  0.60787  0.46115  0.94807  1.0000
  C   C1513     1.0  0.57113  0.43088  0.97048  1.0000
  H   H2699     1.0  0.55501  0.44497  0.91312  1.0000
  Fe  Fe168     1.0  0.49396  0.54002  0.68616  1.0000
  S   S343      1.0  0.48365  0.55076  0.64826  1.0000
  S   S344      1.0  0.51593  0.53414  0.68362  1.0000
  Fe  Fe169     1.0  0.47849  0.56494  0.69072  1.0000
  S   S345      1.0  0.48337  0.59264  0.68567  1.0000
  S   S346      1.0  0.49021  0.55516  0.72767  1.0000
  C   C1514     1.0  0.49996  0.61106  0.69675  1.0000
  C   C1515     1.0  0.51227  0.61067  0.71587  1.0000
  C   C1516     1.0  0.50071  0.62657  0.68615  1.0000
  H   H2700     1.0  0.51170  0.59895  0.72494  1.0000
  H   H2701     1.0  0.49126  0.62712  0.67152  1.0000
  Fe  Fe170     1.0  0.69978  0.55570  0.51660  1.0000
  H   H2702     1.0  0.56002  0.47288  0.90614  1.0000
  C   C1517     1.0  0.52594  0.64104  0.71335  1.0000
  C   C1518     1.0  0.65477  0.53139  0.52809  1.0000
  H   H2703     1.0  0.59285  0.44035  0.91839  1.0000
  H   H2704     1.0  0.61047  0.47451  0.95227  1.0000
  H   H2705     1.0  0.57553  0.61347  0.65304  1.0000
  H   H2706     1.0  0.66094  0.56762  0.52079  1.0000
  H   H2707     1.0  0.49696  0.51348  0.58444  1.0000
  H   H2708     1.0  0.56557  0.43200  0.90644  1.0000
  C   C1519     1.0  0.53588  0.52770  0.58413  1.0000
  C   C1520     1.0  0.53907  0.52038  0.61139  1.0000
  C   C1521     1.0  0.53320  0.52283  0.64192  1.0000
  C   C1522     1.0  0.52351  0.53189  0.64512  1.0000
  C   C1523     1.0  0.52027  0.53919  0.61789  1.0000
  C   C1524     1.0  0.52674  0.53739  0.58752  1.0000
  H   H2709     1.0  0.54632  0.51309  0.60899  1.0000
  H   H2710     1.0  0.53607  0.51760  0.66307  1.0000
  H   H2711     1.0  0.51297  0.54635  0.62027  1.0000
  H   H2712     1.0  0.52447  0.54327  0.56651  1.0000
  C   C1525     1.0  0.50252  0.42275  0.66962  1.0000
  C   C1526     1.0  0.50207  0.42640  0.63670  1.0000
  C   C1527     1.0  0.51551  0.43794  0.62088  1.0000
  C   C1528     1.0  0.52967  0.44563  0.63767  1.0000
  C   C1529     1.0  0.53006  0.44205  0.67064  1.0000
  C   C1530     1.0  0.51650  0.43090  0.68671  1.0000
  H   H2713     1.0  0.49133  0.42010  0.62324  1.0000
  H   H2714     1.0  0.51509  0.44049  0.59547  1.0000
  H   H2715     1.0  0.54100  0.44783  0.68373  1.0000
  H   H2716     1.0  0.51707  0.42813  0.71194  1.0000
  C   C1531     1.0  0.51162  0.43409  0.88558  1.0000
  C   C1532     1.0  0.52095  0.44908  0.90093  1.0000
  C   C1533     1.0  0.52532  0.44947  0.93351  1.0000
  C   C1534     1.0  0.52111  0.43475  0.95062  1.0000
  C   C1535     1.0  0.51186  0.41972  0.93521  1.0000
  C   C1536     1.0  0.50695  0.41940  0.90295  1.0000
  H   H2717     1.0  0.52465  0.46049  0.88765  1.0000
  H   H2718     1.0  0.53200  0.46113  0.94537  1.0000
  H   H2719     1.0  0.50851  0.40826  0.94828  1.0000
  H   H2720     1.0  0.49989  0.40775  0.89136  1.0000
  H   H2721     1.0  0.55271  0.50343  0.68027  1.0000
  C   C1537     1.0  0.52517  0.62551  0.72392  1.0000
  C   C1538     1.0  0.48120  0.48827  0.59465  1.0000
  H   H2722     1.0  0.49856  0.49840  0.72501  1.0000
  H   H2723     1.0  0.65597  0.44947  0.95793  1.0000
  H   H2724     1.0  0.48705  0.44981  0.94629  1.0000
  H   H2725     1.0  0.50352  0.49271  0.54079  1.0000
  S   S347      1.0  0.60294  0.49851  0.49991  1.0000
  H   H2726     1.0  0.56744  0.57050  0.58024  1.0000
  H   H2727     1.0  0.50077  0.46826  0.67961  1.0000
  H   H2728     1.0  0.47281  0.44351  0.84550  1.0000
  H   H2729     1.0  0.50222  0.34641  0.76330  1.0000
  H   H2730     1.0  0.65460  0.58406  0.51668  1.0000
  C   C1539     1.0  0.48759  0.33657  0.64739  1.0000
  C   C1540     1.0  0.48867  0.33322  0.61109  1.0000
  H   H2731     1.0  0.47177  0.47787  0.83570  1.0000
  H   H2732     1.0  0.54329  0.48351  0.72599  1.0000
  C   C1541     1.0  0.49732  0.49409  0.51889  1.0000
  H   H2733     1.0  0.46930  0.44773  0.71436  1.0000
  H   H2734     1.0  0.50157  0.45220  0.50837  1.0000
  H   H2735     1.0  0.52861  0.46386  0.75880  1.0000
  H   H2736     1.0  0.47115  0.36845  0.68968  1.0000
  H   H2737     1.0  0.56862  0.62110  0.68886  1.0000
  C   C1542     1.0  0.67915  0.59037  0.50376  1.0000
  C   C1543     1.0  0.62276  0.51106  0.51201  1.0000
  C   C1544     1.0  0.46405  0.49208  0.53995  1.0000
  H   H2738     1.0  0.53779  0.48860  0.65465  1.0000
  C   C1545     1.0  0.50325  0.49591  0.74809  1.0000
  H   H2739     1.0  0.51552  0.47997  0.91697  1.0000
  H   H2740     1.0  0.55898  0.47160  0.94934  1.0000
  H   H2741     1.0  0.47317  0.33856  0.75855  1.0000
  H   H2742     1.0  0.49015  0.34443  0.59703  1.0000
  H   H2743     1.0  0.56133  0.44958  0.96869  1.0000
  C   C1546     1.0  0.50828  0.48138  0.93792  1.0000
  H   H2744     1.0  0.60329  0.55075  0.52184  1.0000
  H   H2745     1.0  0.56142  0.55893  0.61701  1.0000
  C   C1547     1.0  0.47489  0.52208  0.54615  1.0000
  H   H2746     1.0  0.50873  0.53510  0.78031  1.0000
  H   H2747     1.0  0.51196  0.45763  0.78614  1.0000
  C   C1548     1.0  0.54531  0.49011  0.67624  1.0000
  N   N82       1.0  0.51234  0.48478  0.74231  1.0000
  H   H2748     1.0  0.47766  0.42257  0.94416  1.0000
  H   H2749     1.0  0.49167  0.56462  0.56380  1.0000
  H   H2750     1.0  0.55341  0.48356  0.67119  1.0000
  H   H2751     1.0  0.57306  0.63635  0.62127  1.0000
  H   H2752     1.0  0.49240  0.51583  0.78849  1.0000
  C   C1549     1.0  0.55011  0.60927  0.65247  1.0000
  H   H2753     1.0  0.51061  0.47519  0.95933  1.0000
  C   C1550     1.0  0.57060  0.45052  0.87027  1.0000
  H   H2754     1.0  0.53626  0.45875  0.81263  1.0000
  C   C1551     1.0  0.52024  0.48389  0.77371  1.0000
  H   H2755     1.0  0.62440  0.50996  0.97113  1.0000
  H   H2756     1.0  0.51863  0.49417  0.69372  1.0000
  H   H2757     1.0  0.52927  0.47363  0.83090  1.0000
  H   H2758     1.0  0.54277  0.61605  0.66228  1.0000
  H   H2759     1.0  0.49601  0.52395  0.74791  1.0000
  H   H2760     1.0  0.51279  0.48478  0.79490  1.0000
  C   C1552     1.0  0.56695  0.44519  0.90612  1.0000
  H   H2761     1.0  0.70394  0.48367  0.95990  1.0000
  H   H2762     1.0  0.52219  0.52095  0.74663  1.0000
  H   H2763     1.0  0.48697  0.46298  0.86024  1.0000
  H   H2764     1.0  0.48686  0.47604  0.69788  1.0000
  C   C1553     1.0  0.47871  0.44969  0.69551  1.0000
  H   H2765     1.0  0.53453  0.62502  0.73892  1.0000
  H   H2766     1.0  0.66219  0.47523  0.92606  1.0000
  C   C1554     1.0  0.49066  0.47412  0.92977  1.0000
  H   H2767     1.0  0.48486  0.48069  0.57694  1.0000
  H   H2768     1.0  0.69701  0.60613  0.53669  1.0000
  C   C1555     1.0  0.68439  0.59740  0.53768  1.0000
  C   C1556     1.0  0.58189  0.47343  0.92903  1.0000
  H   H2769     1.0  0.48665  0.32530  0.66036  1.0000
  N   N83       1.0  0.57915  0.45529  0.93033  1.0000
  C   C1557     1.0  0.48389  0.34876  0.71123  1.0000
  C   C1558     1.0  0.56681  0.47746  0.92867  1.0000
  H   H2770     1.0  0.66580  0.44897  0.91974  1.0000
  C   C1559     1.0  0.62609  0.52053  0.54072  1.0000
  C   C1560     1.0  0.51356  0.64143  0.69439  1.0000
  H   H2771     1.0  0.58575  0.64407  0.65570  1.0000
  C   C1561     1.0  0.57100  0.49613  0.93106  1.0000
  H   H2772     1.0  0.59965  0.45966  0.89913  1.0000
  C   C1562     1.0  0.49062  0.44537  0.52262  1.0000
  C   C1563     1.0  0.48200  0.55279  0.55665  1.0000
  H   H2773     1.0  0.57359  0.46394  0.86726  1.0000
  C   C1564     1.0  0.57335  0.63691  0.64816  1.0000
  H   H2774     1.0  0.49392  0.43954  0.54339  1.0000
  H   H2775     1.0  0.47727  0.46540  0.80626  1.0000
  H   H2776     1.0  0.49223  0.53812  0.58127  1.0000
  C   C1565     1.0  0.48809  0.53876  0.55654  1.0000
  C   C1566     1.0  0.55633  0.44119  0.84899  1.0000
  H   H2777     1.0  0.47790  0.51102  0.59976  1.0000
  H   H2778     1.0  0.58077  0.44766  0.86090  1.0000
  C   C1567     1.0  0.59468  0.45357  0.92252  1.0000
  H   H2779     1.0  0.54979  0.61014  0.62586  1.0000
  H   H2780     1.0  0.58215  0.42879  0.96495  1.0000
  H   H2781     1.0  0.60432  0.45477  0.97161  1.0000
  H   H2782     1.0  0.49894  0.34669  0.65436  1.0000
  H   H2783     1.0  0.47324  0.55891  0.85451  1.0000
  H   H2784     1.0  0.58089  0.45731  0.98282  1.0000
  H   H2785     1.0  0.61644  0.52011  0.55683  1.0000
  H   H2786     1.0  0.55310  0.42761  0.85034  1.0000
  H   H2787     1.0  0.49909  0.32990  0.60595  1.0000
  H   H2788     1.0  0.49239  0.36102  0.70253  1.0000
  H   H2789     1.0  0.56141  0.42208  0.95572  1.0000
  C   C1568     1.0  0.68099  0.52704  0.94477  1.0000
  H   H2790     1.0  0.55995  0.49863  0.93140  1.0000
  H   H2791     1.0  0.57749  0.50133  0.95378  1.0000
  H   H2792     1.0  0.57846  0.50249  0.90999  1.0000
  N   N84       1.0  0.68190  0.50118  0.97320  1.0000
  C   C1569     1.0  0.67322  0.48261  0.97358  1.0000
  H   H2793     1.0  0.69399  0.53190  0.94028  1.0000
  C   C1570     1.0  0.67411  0.50793  0.94835  1.0000
  C   C1571     1.0  0.69933  0.50654  0.96454  1.0000
  C   C1572     1.0  0.70789  0.49517  0.97490  1.0000
  H   H2794     1.0  0.49243  0.45267  0.90498  1.0000
  S   S348      1.0  0.67451  0.54482  0.53914  1.0000
  H   H2795     1.0  0.48331  0.43970  0.69712  1.0000
  H   H2796     1.0  0.65251  0.52854  0.97948  1.0000
  H   H2797     1.0  0.47792  0.55422  0.53217  1.0000
  C   C1573     1.0  0.66730  0.45506  0.94402  1.0000
  C   C1574     1.0  0.47858  0.43202  0.50160  1.0000
  H   H2798     1.0  0.66093  0.47937  0.98344  1.0000
  H   H2799     1.0  0.67882  0.47684  0.99040  1.0000
  H   H2800     1.0  0.67709  0.60420  0.54711  1.0000
  H   H2801     1.0  0.66043  0.52773  0.91979  1.0000
  H   H2802     1.0  0.66114  0.50385  0.95372  1.0000
  H   H2803     1.0  0.47626  0.35999  0.75321  1.0000
  C   C1575     1.0  0.64194  0.53057  0.54864  1.0000
  H   H2804     1.0  0.70603  0.51918  0.97462  1.0000
  C   C1576     1.0  0.46980  0.46498  0.82806  1.0000
  C   C1577     1.0  0.48127  0.35049  0.74815  1.0000
  H   H2805     1.0  0.48426  0.47703  0.95062  1.0000
  C   C1578     1.0  0.67351  0.53222  0.91643  1.0000
  H   H2806     1.0  0.68334  0.58726  0.55452  1.0000
  H   H2807     1.0  0.58932  0.47942  0.90758  1.0000
  H   H2808     1.0  0.62813  0.57355  0.50458  1.0000
  C   C1579     1.0  0.62858  0.51376  0.99544  1.0000
  C   C1580     1.0  0.49212  0.46664  0.69992  1.0000
  H   H2809     1.0  0.46801  0.42552  0.51690  1.0000
  C   C1581     1.0  0.56752  0.61950  0.66218  1.0000
  C   C1582     1.0  0.48414  0.50578  0.58186  1.0000
  H   H2810     1.0  0.58886  0.48017  0.95030  1.0000
  H   H2811     1.0  0.49035  0.34034  0.70864  1.0000
  H   H2812     1.0  0.68292  0.47878  0.92582  1.0000
  C   C1583     1.0  0.46358  0.45448  0.88563  1.0000
  H   H2813     1.0  0.67682  0.45272  0.95672  1.0000
  H   H2814     1.0  0.55923  0.44497  0.82337  1.0000
  H   H2815     1.0  0.49272  0.48965  0.76410  1.0000
  N   N85       1.0  0.47895  0.50692  0.54770  1.0000
  C   C1584     1.0  0.53448  0.47042  0.80847  1.0000
  H   H2816     1.0  0.47280  0.42799  0.88729  1.0000
  C   C1585     1.0  0.51266  0.51327  0.76336  1.0000
  C   C1586     1.0  0.52335  0.46793  0.77999  1.0000
  H   H2817     1.0  0.63243  0.46498  0.95586  1.0000
  H   H2818     1.0  0.51814  0.51243  0.78660  1.0000
  H   H2819     1.0  0.53279  0.50492  0.72304  1.0000
  N   N86       1.0  0.46743  0.44661  0.91470  1.0000
  H   H2820     1.0  0.53171  0.49473  0.77596  1.0000
  N   N87       1.0  0.54310  0.59153  0.66356  1.0000
  C   C1587     1.0  0.52594  0.58351  0.65343  1.0000
  C   C1588     1.0  0.54346  0.59199  0.70021  1.0000
  C   C1589     1.0  0.55246  0.58148  0.65182  1.0000
  C   C1590     1.0  0.55512  0.58058  0.61485  1.0000
  C   C1591     1.0  0.53510  0.57519  0.71746  1.0000
  C   C1592     1.0  0.52172  0.58651  0.61828  1.0000
  C   C1593     1.0  0.51361  0.59888  0.61702  1.0000
  C   C1594     1.0  0.56625  0.57163  0.60695  1.0000
  C   C1595     1.0  0.53474  0.57763  0.75420  1.0000
  H   H2821     1.0  0.52170  0.56985  0.65601  1.0000
  H   H2822     1.0  0.51814  0.58716  0.67047  1.0000
  H   H2823     1.0  0.53815  0.60070  0.70991  1.0000
  H   H2824     1.0  0.55586  0.59685  0.70893  1.0000
  H   H2825     1.0  0.56426  0.58598  0.66355  1.0000
  H   H2826     1.0  0.54643  0.56838  0.65952  1.0000
  H   H2827     1.0  0.54374  0.57327  0.60299  1.0000
  H   H2828     1.0  0.54144  0.56681  0.71228  1.0000
  H   H2829     1.0  0.52270  0.56892  0.70972  1.0000
  H   H2830     1.0  0.53185  0.59052  0.60107  1.0000
  H   H2831     1.0  0.51326  0.57457  0.60819  1.0000
  H   H2832     1.0  0.52073  0.61080  0.62909  1.0000
  H   H2833     1.0  0.51188  0.60134  0.59142  1.0000
  H   H2834     1.0  0.50176  0.59364  0.62895  1.0000
  H   H2835     1.0  0.57821  0.57861  0.61698  1.0000
  H   H2836     1.0  0.54697  0.58356  0.76363  1.0000
  H   H2837     1.0  0.52795  0.58545  0.76080  1.0000
  H   H2838     1.0  0.52881  0.56542  0.76587  1.0000
  S   S349      1.0  0.70447  0.56668  0.96855  1.0000
  H   H2839     1.0  0.50602  0.45858  0.73063  1.0000
  H   H2840     1.0  0.47167  0.52393  0.52112  1.0000
  H   H2841     1.0  0.52783  0.46958  0.70045  1.0000
  H   H2842     1.0  0.54623  0.48035  0.80325  1.0000
  C   C1596     1.0  0.53505  0.48272  0.70610  1.0000
  H   H2843     1.0  0.67860  0.53318  0.96682  1.0000
  C   C1597     1.0  0.52448  0.49231  0.71582  1.0000
  H   H2844     1.0  0.48909  0.48061  0.90815  1.0000
  H   H2845     1.0  0.49122  0.46314  0.75212  1.0000
  C   C1598     1.0  0.50175  0.52255  0.77044  1.0000
  C   C1599     1.0  0.50048  0.46785  0.73271  1.0000
  H   H2846     1.0  0.64428  0.53779  0.57092  1.0000
  H   H2847     1.0  0.70130  0.50790  0.93781  1.0000
  H   H2848     1.0  0.67525  0.50300  0.92378  1.0000
  H   H2849     1.0  0.56038  0.59309  0.60417  1.0000
  S   S350      1.0  0.52761  0.43443  0.99067  1.0000
  C   C1600     1.0  0.47425  0.45596  0.85506  1.0000
  H   H2850     1.0  0.49465  0.35728  0.79250  1.0000
  C   C1601     1.0  0.48465  0.45512  0.92371  1.0000
  C   C1602     1.0  0.57315  0.44903  0.96386  1.0000
  S   S351      1.0  0.47122  0.51872  0.69537  1.0000
  C   C1603     1.0  0.67172  0.47365  0.94020  1.0000
  H   H2851     1.0  0.56585  0.64359  0.65736  1.0000
  H   H2852     1.0  0.48745  0.47662  0.63482  1.0000
  H   H2853     1.0  0.67634  0.52725  0.89319  1.0000
  H   H2854     1.0  0.51208  0.49479  0.94378  1.0000
  H   H2855     1.0  0.47337  0.44881  0.67130  1.0000
  H   H2856     1.0  0.50322  0.51953  0.53093  1.0000
  H   H2857     1.0  0.62780  0.46636  0.91409  1.0000
  C   C1604     1.0  0.49026  0.48931  0.62582  1.0000
  H   H2858     1.0  0.50326  0.49516  0.62114  1.0000
  H   H2859     1.0  0.62147  0.44634  0.93328  1.0000
  H   H2860     1.0  0.49839  0.54218  0.53953  1.0000
  C   C1605     1.0  0.62331  0.45957  0.93699  1.0000
  H   H2861     1.0  0.63186  0.55843  0.52778  1.0000
  H   H2862     1.0  0.67833  0.54595  0.91512  1.0000
  H   H2863     1.0  0.46378  0.46698  0.89202  1.0000
  C   C1606     1.0  0.49690  0.35586  0.76626  1.0000
  C   C1607     1.0  0.66167  0.57779  0.50425  1.0000
  H   H2864     1.0  0.48686  0.49661  0.64478  1.0000
  C   C1608     1.0  0.65145  0.52185  0.49948  1.0000
  H   H2865     1.0  0.47350  0.31496  0.71607  1.0000
  H   H2866     1.0  0.48938  0.51247  0.49950  1.0000
  C   C1609     1.0  0.62768  0.56075  0.50398  1.0000
  H   H2867     1.0  0.47784  0.32276  0.60298  1.0000
  H   H2868     1.0  0.48712  0.48241  0.51381  1.0000
  C   C1610     1.0  0.46544  0.41789  0.93455  1.0000
  Fe  Fe171     1.0  0.46643  0.53433  0.73449  1.0000
  H   H2869     1.0  0.68907  0.64121  0.86411  1.0000
  H   H2870     1.0  0.46357  0.47996  0.72220  1.0000
  H   H2871     1.0  0.47700  0.35426  0.64388  1.0000
  H   H2872     1.0  0.46605  0.48039  0.54107  1.0000
  C   C1611     1.0  0.47351  0.34190  0.65538  1.0000
  C   C1612     1.0  0.46423  0.42874  0.90630  1.0000
  N   N88       1.0  0.46918  0.34295  0.69077  1.0000
  H   H2873     1.0  0.46478  0.49033  0.93302  1.0000
  H   H2874     1.0  0.70687  0.64163  0.88280  1.0000
  H   H2875     1.0  0.46989  0.39947  0.90384  1.0000
  H   H2876     1.0  0.47202  0.55027  0.57432  1.0000
  H   H2877     1.0  0.46425  0.52033  0.56166  1.0000
  H   H2878     1.0  0.60918  0.53591  0.50025  1.0000
  C   C1613     1.0  0.61031  0.54901  0.50079  1.0000
  Fe  Fe172     1.0  0.46349  0.38019  0.79455  1.0000
  H   H2879     1.0  0.46270  0.54549  0.94047  1.0000
  S   S352      1.0  0.46289  0.39989  0.83058  1.0000
  H   H2880     1.0  0.46296  0.33348  0.64187  1.0000
  Fe  Fe173     1.0  0.68073  0.88844  0.08257  1.0000
  H   H2881     1.0  0.70188  0.75290  0.41833  1.0000
  S   S353      1.0  0.65557  0.88726  0.08063  1.0000
  H   H2882     1.0  0.47028  0.96410  0.39438  1.0000
  S   S354      1.0  0.69764  0.90497  0.11922  1.0000
  S   S355      1.0  0.68292  0.86550  0.10064  1.0000
  S   S356      1.0  0.69599  0.78286  0.37820  1.0000
  S   S357      1.0  0.68222  0.80089  0.32439  1.0000
  H   H2883     1.0  0.66330  0.85404  0.44054  1.0000
  Fe  Fe174     1.0  0.68060  0.77531  0.33402  1.0000
  S   S358      1.0  0.65538  0.75636  0.33879  1.0000
  C   C1614     1.0  0.50093  0.97725  0.24601  1.0000
  C   C1615     1.0  0.52261  0.65219  0.18582  1.0000
  H   H2884     1.0  0.60493  0.85824  0.02677  1.0000
  H   H2885     1.0  0.69749  0.81802  0.00034  1.0000
  Fe  Fe175     1.0  0.56996  0.79858  0.44886  1.0000
  H   H2886     1.0  0.59673  0.89193  0.01936  1.0000
  S   S359      1.0  0.57560  0.77939  0.41836  1.0000
  Fe  Fe176     1.0  0.55322  0.82174  0.47091  1.0000
  S   S360      1.0  0.53090  0.82703  0.45987  1.0000
  H   H2887     1.0  0.50251  0.97346  0.29745  1.0000
  S   S361      1.0  0.57987  0.79419  0.04838  1.0000
  S   S362      1.0  0.57270  0.82412  0.43407  1.0000
  H   H2888     1.0  0.59329  0.80164  0.20270  1.0000
  Fe  Fe177     1.0  0.48933  0.92918  0.40597  1.0000
  S   S363      1.0  0.49765  0.91395  0.37170  1.0000
  S   S364      1.0  0.49989  0.95720  0.40939  1.0000
  C   C1616     1.0  0.52697  0.65126  0.21777  1.0000
  Fe  Fe178     1.0  0.49519  0.89722  0.41415  1.0000
  S   S365      1.0  0.51693  0.89190  0.42892  1.0000
  C   C1617     1.0  0.48572  0.94233  0.29070  1.0000
  S   S366      1.0  0.48817  0.91354  0.44911  1.0000
  H   H2889     1.0  0.63546  0.79517  0.05966  1.0000
  Fe  Fe179     1.0  0.55718  0.73257  0.24782  1.0000
  S   S367      1.0  0.57444  0.74327  0.20674  1.0000
  S   S368      1.0  0.55019  0.75093  0.27792  1.0000
  Fe  Fe180     1.0  0.55108  0.69649  0.22674  1.0000
  S   S369      1.0  0.56828  0.70499  0.18482  1.0000
  S   S370      1.0  0.53870  0.66911  0.24082  1.0000
  Fe  Fe181     1.0  0.58409  0.72416  0.21951  1.0000
  S   S371      1.0  0.61065  0.73071  0.21674  1.0000
  Fe  Fe182     1.0  0.55729  0.72346  0.17570  1.0000
  S   S372      1.0  0.54909  0.72694  0.12570  1.0000
  S   S373      1.0  0.56788  0.71451  0.26253  1.0000
  S   S374      1.0  0.53903  0.71387  0.21576  1.0000
  H   H2890     1.0  0.62197  0.87094  0.07397  1.0000
  H   H2891     1.0  0.53230  0.91830  0.37970  1.0000
  C   C1618     1.0  0.54257  0.78140  0.13397  1.0000
  H   H2892     1.0  0.52610  0.66415  0.17452  1.0000
  H   H2893     1.0  0.58270  0.66809  0.26630  1.0000
  C   C1619     1.0  0.56880  0.77213  0.37883  1.0000
  C   C1620     1.0  0.57430  0.76087  0.36308  1.0000
  C   C1621     1.0  0.56885  0.75438  0.33208  1.0000
  C   C1622     1.0  0.55780  0.75908  0.31653  1.0000
  C   C1623     1.0  0.55251  0.77054  0.33205  1.0000
  C   C1624     1.0  0.55798  0.77706  0.36304  1.0000
  H   H2894     1.0  0.58271  0.75703  0.37502  1.0000
  H   H2895     1.0  0.57304  0.74560  0.32040  1.0000
  H   H2896     1.0  0.54398  0.77426  0.32023  1.0000
  H   H2897     1.0  0.55367  0.78571  0.37486  1.0000
  C   C1625     1.0  0.55798  0.74535  0.10341  1.0000
  C   C1626     1.0  0.54979  0.74839  0.07745  1.0000
  C   C1627     1.0  0.55640  0.76316  0.05980  1.0000
  C   C1628     1.0  0.57125  0.77500  0.06812  1.0000
  C   C1629     1.0  0.57956  0.77178  0.09359  1.0000
  C   C1630     1.0  0.57302  0.75698  0.11100  1.0000
  H   H2898     1.0  0.53819  0.73936  0.07129  1.0000
  H   H2899     1.0  0.54990  0.76553  0.04024  1.0000
  H   H2900     1.0  0.59110  0.78083  0.10002  1.0000
  H   H2901     1.0  0.57958  0.75457  0.13040  1.0000
  C   C1631     1.0  0.52750  0.84529  0.45057  1.0000
  C   C1632     1.0  0.53919  0.86125  0.45390  1.0000
  C   C1633     1.0  0.57188  0.96366  0.39834  1.0000
  C   C1634     1.0  0.52057  0.87363  0.43675  1.0000
  C   C1635     1.0  0.50891  0.85769  0.43316  1.0000
  C   C1636     1.0  0.51235  0.84366  0.44014  1.0000
  H   H2902     1.0  0.48797  0.91219  0.26824  1.0000
  Fe  Fe183     1.0  0.58925  0.83309  0.47625  1.0000
  H   H2903     1.0  0.49729  0.85614  0.42476  1.0000
  H   H2904     1.0  0.50326  0.83140  0.43707  1.0000
  Fe  Fe184     1.0  0.70352  0.80371  0.29368  1.0000
  C   C1637     1.0  0.51399  0.96860  0.38004  1.0000
  C   C1638     1.0  0.51995  0.96074  0.35644  1.0000
  C   C1639     1.0  0.52002  0.74902  0.18053  1.0000
  H   H2905     1.0  0.51562  0.94741  0.35533  1.0000
  C   C1640     1.0  0.64308  0.74956  0.30462  1.0000
  C   C1641     1.0  0.62652  0.74374  0.30881  1.0000
  C   C1642     1.0  0.61640  0.73794  0.28213  1.0000
  C   C1643     1.0  0.62279  0.73758  0.25115  1.0000
  C   C1644     1.0  0.63931  0.74293  0.24717  1.0000
  C   C1645     1.0  0.64945  0.74926  0.27362  1.0000
  H   H2906     1.0  0.62149  0.74377  0.33278  1.0000
  H   H2907     1.0  0.60368  0.73363  0.28559  1.0000
  H   H2908     1.0  0.64431  0.74236  0.22339  1.0000
  H   H2909     1.0  0.66217  0.75348  0.27017  1.0000
  H   H2910     1.0  0.52458  0.75148  0.48682  1.0000
  H   H2911     1.0  0.68282  0.83856  0.46009  1.0000
  H   H2912     1.0  0.48368  0.66894  0.26391  1.0000
  H   H2913     1.0  0.59943  0.76467  0.46287  1.0000
  H   H2914     1.0  0.61138  0.67303  0.19365  1.0000
  C   C1646     1.0  0.55549  0.86161  0.03254  1.0000
  C   C1647     1.0  0.53192  0.97017  0.33473  1.0000
  C   C1648     1.0  0.59143  0.67384  0.24650  1.0000
  C   C1649     1.0  0.64389  0.87853  0.04648  1.0000
  S   S375      1.0  0.70233  0.84734  0.03791  1.0000
  C   C1650     1.0  0.64370  0.86454  0.49617  1.0000
  H   H2915     1.0  0.53488  0.94593  0.48198  1.0000
  C   C1651     1.0  0.61767  0.86399  0.02357  1.0000
  C   C1652     1.0  0.62732  0.87122  0.05023  1.0000
  C   C1653     1.0  0.70503  0.83071  0.22738  1.0000
  C   C1654     1.0  0.70327  0.84711  0.18147  1.0000
  C   C1655     1.0  0.53396  0.74817  0.47465  1.0000
  H   H2916     1.0  0.61154  0.82237  0.11674  1.0000
  C   C1656     1.0  0.49698  0.93909  0.26536  1.0000
  H   H2917     1.0  0.46403  0.97481  0.36424  1.0000
  C   C1657     1.0  0.65301  0.83548  0.03219  1.0000
  H   H2918     1.0  0.68199  0.79517  0.19105  1.0000
  H   H2919     1.0  0.52133  0.73727  0.13406  1.0000
  S   S376      1.0  0.58775  0.80788  0.48860  1.0000
  C   C1658     1.0  0.53758  0.94750  0.42936  1.0000
  H   H2920     1.0  0.46465  0.96670  0.30700  1.0000
  H   H2921     1.0  0.64853  0.80409  0.48195  1.0000
  C   C1659     1.0  0.55064  0.94037  0.42646  1.0000
  H   H2922     1.0  0.52952  0.94368  0.40841  1.0000
  H   H2923     1.0  0.58363  0.96599  0.38648  1.0000
  H   H2924     1.0  0.54288  0.96117  0.43147  1.0000
  N   N89       1.0  0.47957  0.95556  0.28292  1.0000
  C   C1660     1.0  0.60155  0.69151  0.25736  1.0000
  H   H2925     1.0  0.65609  0.79544  0.08766  1.0000
  H   H2926     1.0  0.62162  0.83055  0.06044  1.0000
  N   N90       1.0  0.63878  0.82017  0.43008  1.0000
  C   C1661     1.0  0.62128  0.81042  0.42529  1.0000
  C   C1662     1.0  0.52755  0.94135  0.46006  1.0000
  C   C1663     1.0  0.64296  0.83651  0.41317  1.0000
  C   C1664     1.0  0.64910  0.81146  0.41657  1.0000
  C   C1665     1.0  0.64199  0.79220  0.41681  1.0000
  C   C1666     1.0  0.61595  0.80613  0.38946  1.0000
  C   C1667     1.0  0.66049  0.84896  0.41559  1.0000
  H   H2927     1.0  0.58752  0.91652  0.42290  1.0000
  H   H2928     1.0  0.62404  0.81413  0.01058  1.0000
  C   C1668     1.0  0.65472  0.78529  0.40903  1.0000
  C   C1669     1.0  0.60634  0.81584  0.37757  1.0000
  C   C1670     1.0  0.66367  0.86383  0.39377  1.0000
  H   H2929     1.0  0.61425  0.81709  0.43697  1.0000
  H   H2930     1.0  0.61714  0.79853  0.43841  1.0000
  H   H2931     1.0  0.50274  0.92294  0.29799  1.0000
  Fe  Fe185     1.0  0.47165  0.89952  0.36308  1.0000
  H   H2932     1.0  0.63527  0.84299  0.42256  1.0000
  H   H2933     1.0  0.64054  0.83442  0.38687  1.0000
  H   H2934     1.0  0.65261  0.81495  0.39091  1.0000
  H   H2935     1.0  0.66051  0.81584  0.42977  1.0000
  H   H2936     1.0  0.63276  0.78721  0.39810  1.0000
  H   H2937     1.0  0.47694  0.95043  0.23107  1.0000
  H   H2938     1.0  0.62606  0.80802  0.37248  1.0000
  H   H2939     1.0  0.60825  0.79274  0.38759  1.0000
  H   H2940     1.0  0.66888  0.84305  0.40827  1.0000
  S   S377      1.0  0.70091  0.77723  0.30021  1.0000
  H   H2941     1.0  0.46701  0.94471  0.45441  1.0000
  H   H2942     1.0  0.54454  0.79075  0.08513  1.0000
  H   H2943     1.0  0.53678  0.96401  0.31706  1.0000
  C   C1671     1.0  0.58902  0.65198  0.18317  1.0000
  H   H2944     1.0  0.49303  0.81859  0.49178  1.0000
  H   H2945     1.0  0.66410  0.78935  0.42766  1.0000
  H   H2946     1.0  0.64932  0.77154  0.40843  1.0000
  H   H2947     1.0  0.66027  0.78955  0.38493  1.0000
  H   H2948     1.0  0.59539  0.81297  0.39259  1.0000
  H   H2949     1.0  0.61331  0.82938  0.37872  1.0000
  H   H2950     1.0  0.60275  0.81217  0.35214  1.0000
  H   H2951     1.0  0.66174  0.85984  0.36798  1.0000
  H   H2952     1.0  0.55311  0.65937  0.10972  1.0000
  H   H2953     1.0  0.61106  0.69759  0.23917  1.0000
  N   N91       1.0  0.57610  0.65718  0.19685  1.0000
  C   C1672     1.0  0.58249  0.67361  0.21482  1.0000
  C   C1673     1.0  0.56532  0.65820  0.17049  1.0000
  H   H2954     1.0  0.54488  0.88752  0.44996  1.0000
  H   H2955     1.0  0.70413  0.86771  0.25260  1.0000
  H   H2956     1.0  0.59921  0.66679  0.24364  1.0000
  C   C1674     1.0  0.70407  0.85790  0.23613  1.0000
  C   C1675     1.0  0.57318  0.67006  0.14226  1.0000
  C   C1676     1.0  0.56062  0.67164  0.12016  1.0000
  C   C1677     1.0  0.58119  0.73733  0.02888  1.0000
  H   H2957     1.0  0.55503  0.80619  0.11483  1.0000
  H   H2958     1.0  0.57260  0.67756  0.22184  1.0000
  H   H2959     1.0  0.59035  0.68366  0.19906  1.0000
  S   S378      1.0  0.54938  0.79516  0.48322  1.0000
  H   H2960     1.0  0.55578  0.66176  0.18132  1.0000
  H   H2961     1.0  0.58934  0.73208  0.03922  1.0000
  H   H2962     1.0  0.47084  0.85995  0.45639  1.0000
  H   H2963     1.0  0.60721  0.69134  0.28080  1.0000
  C   C1678     1.0  0.60480  0.66600  0.17232  1.0000
  H   H2964     1.0  0.60288  0.67499  0.15629  1.0000
  C   C1679     1.0  0.70996  0.77046  0.45872  1.0000
  C   C1680     1.0  0.70417  0.83264  0.19385  1.0000
  C   C1681     1.0  0.61462  0.78760  0.00857  1.0000
  H   H2965     1.0  0.58065  0.68265  0.15095  1.0000
  H   H2966     1.0  0.58058  0.66506  0.12719  1.0000
  H   H2967     1.0  0.56650  0.68013  0.09999  1.0000
  H   H2968     1.0  0.49439  0.87106  0.48686  1.0000
  H   H2969     1.0  0.55289  0.67681  0.13382  1.0000
  C   C1682     1.0  0.64162  0.82402  0.46578  1.0000
  H   H2970     1.0  0.61910  0.91933  0.01370  1.0000
  H   H2971     1.0  0.52386  0.78421  0.28619  1.0000
  H   H2972     1.0  0.68580  0.80754  0.08643  1.0000
  H   H2973     1.0  0.69887  0.77291  0.45850  1.0000
  H   H2974     1.0  0.47713  0.94755  0.35302  1.0000
  C   C1683     1.0  0.46287  0.85618  0.47813  1.0000
  H   H2975     1.0  0.60296  0.78680  0.99966  1.0000
  H   H2976     1.0  0.48205  0.84072  0.47437  1.0000
  H   H2977     1.0  0.59191  0.95322  0.42686  1.0000
  C   C1684     1.0  0.54104  0.78673  0.16974  1.0000
  C   C1685     1.0  0.65074  0.87900  0.01570  1.0000
  H   H2978     1.0  0.62764  0.84055  0.13234  1.0000
  H   H2979     1.0  0.67772  0.80146  0.12660  1.0000
  H   H2980     1.0  0.57321  0.79165  0.16015  1.0000
  H   H2981     1.0  0.67094  0.82951  0.00351  1.0000
  H   H2982     1.0  0.63754  0.84837  0.07610  1.0000
  H   H2983     1.0  0.61837  0.65018  0.16978  1.0000
  Fe  Fe186     1.0  0.46315  0.89869  0.43474  1.0000
  H   H2984     1.0  0.55520  0.84965  0.04168  1.0000
  H   H2985     1.0  0.57771  0.93658  0.44965  1.0000
  H   H2986     1.0  0.52905  0.78724  0.17190  1.0000
  H   H2987     1.0  0.67929  0.77903  0.22009  1.0000
  Fe  Fe187     1.0  0.57212  0.80387  0.00389  1.0000
  H   H2988     1.0  0.50854  0.92181  0.25621  1.0000
  H   H2989     1.0  0.53357  0.79871  0.11291  1.0000
  H   H2990     1.0  0.59804  0.78848  0.17358  1.0000
  H   H2991     1.0  0.67247  0.83291  0.07457  1.0000
  N   N92       1.0  0.64741  0.80144  0.25093  1.0000
  C   C1686     1.0  0.66094  0.79613  0.24235  1.0000
  C   C1687     1.0  0.65063  0.81069  0.28303  1.0000
  C   C1688     1.0  0.63273  0.78581  0.25571  1.0000
  C   C1689     1.0  0.64446  0.81173  0.22477  1.0000
  C   C1690     1.0  0.65919  0.82319  0.20488  1.0000
  C   C1691     1.0  0.65824  0.78442  0.21225  1.0000
  C   C1692     1.0  0.61747  0.78819  0.26770  1.0000
  C   C1693     1.0  0.66565  0.82681  0.28510  1.0000
  C   C1694     1.0  0.66762  0.83433  0.31935  1.0000
  C   C1695     1.0  0.65521  0.83550  0.18476  1.0000
  C   C1696     1.0  0.67362  0.78306  0.20022  1.0000
  C   C1697     1.0  0.60337  0.77157  0.26967  1.0000
  H   H2992     1.0  0.66341  0.78955  0.26307  1.0000
  H   H2993     1.0  0.67215  0.80696  0.23832  1.0000
  H   H2994     1.0  0.64077  0.81462  0.28987  1.0000
  H   H2995     1.0  0.65124  0.80233  0.30254  1.0000
  H   H2996     1.0  0.63513  0.77750  0.27315  1.0000
  H   H2997     1.0  0.62948  0.77859  0.23261  1.0000
  H   H2998     1.0  0.63607  0.80360  0.20655  1.0000
  H   H2999     1.0  0.63831  0.81952  0.23538  1.0000
  H   H3000     1.0  0.66346  0.81582  0.18774  1.0000
  H   H3001     1.0  0.66938  0.83034  0.22020  1.0000
  H   H3002     1.0  0.64994  0.77183  0.21862  1.0000
  H   H3003     1.0  0.65291  0.78844  0.19193  1.0000
  H   H3004     1.0  0.61445  0.79630  0.25104  1.0000
  H   H3005     1.0  0.61886  0.79365  0.29249  1.0000
  H   H3006     1.0  0.67648  0.82452  0.27885  1.0000
  H   H3007     1.0  0.66464  0.83629  0.26891  1.0000
  H   H3008     1.0  0.66863  0.82558  0.33739  1.0000
  H   H3009     1.0  0.67860  0.84575  0.32027  1.0000
  H   H3010     1.0  0.65736  0.83764  0.32615  1.0000
  H   H3011     1.0  0.66583  0.84311  0.17024  1.0000
  H   H3012     1.0  0.64539  0.82889  0.16795  1.0000
  H   H3013     1.0  0.65181  0.84400  0.20080  1.0000
  H   H3014     1.0  0.55087  0.86278  0.46191  1.0000
  H   H3015     1.0  0.57005  0.77038  0.16883  1.0000
  H   H3016     1.0  0.47555  0.93038  0.29527  1.0000
  H   H3017     1.0  0.59228  0.77363  0.27507  1.0000
  H   H3018     1.0  0.60194  0.76449  0.24652  1.0000
  H   H3019     1.0  0.60510  0.76405  0.28945  1.0000
  N   N93       1.0  0.64863  0.82158  0.05632  1.0000
  C   C1698     1.0  0.64047  0.82541  0.08598  1.0000
  H   H3020     1.0  0.55341  0.97361  0.38777  1.0000
  S   S379      1.0  0.46983  0.88124  0.40226  1.0000
  C   C1699     1.0  0.61986  0.83520  0.11128  1.0000
  H   H3021     1.0  0.70436  0.82295  0.17731  1.0000
  H   H3022     1.0  0.63326  0.81376  0.09875  1.0000
  H   H3023     1.0  0.64946  0.83312  0.10375  1.0000
  H   H3024     1.0  0.57836  0.72782  0.47432  1.0000
  H   H3025     1.0  0.48083  0.94115  0.48106  1.0000
  H   H3026     1.0  0.65620  0.81104  0.11693  1.0000
  H   H3027     1.0  0.55511  0.73332  0.46963  1.0000
  H   H3028     1.0  0.52895  0.96557  0.00511  1.0000
  H   H3029     1.0  0.56007  0.87116  0.05197  1.0000
  H   H3030     1.0  0.63643  0.78720  0.44038  1.0000
  H   H3031     1.0  0.65395  0.83283  0.47001  1.0000
  H   H3032     1.0  0.68564  0.82303  0.11603  1.0000
  H   H3033     1.0  0.54023  0.80395  0.22553  1.0000
  H   H3034     1.0  0.66130  0.84722  0.04355  1.0000
  C   C1700     1.0  0.63854  0.80511  0.04139  1.0000
  H   H3035     1.0  0.56938  0.73139  0.04090  1.0000
  C   C1701     1.0  0.52584  0.79401  0.26796  1.0000
  S   S380      1.0  0.69139  0.82439  0.40320  1.0000
  H   H3036     1.0  0.67107  0.77380  0.18013  1.0000
  C   C1702     1.0  0.59342  0.75148  0.45566  1.0000
  Fe  Fe188     1.0  0.70135  0.88217  0.13398  1.0000
  H   H3037     1.0  0.52844  0.73533  0.46482  1.0000
  C   C1703     1.0  0.47589  0.95902  0.34500  1.0000
  H   H3038     1.0  0.61278  0.84283  0.10710  1.0000
  H   H3039     1.0  0.62694  0.66913  0.14743  1.0000
  N   N94       1.0  0.56152  0.94532  0.39716  1.0000
  C   C1704     1.0  0.59476  0.93005  0.42269  1.0000
  C   C1705     1.0  0.48736  0.97502  0.48053  1.0000
  S   S381      1.0  0.57244  0.82968  0.00742  1.0000
  H   H3040     1.0  0.54316  0.86001  0.02680  1.0000
  C   C1706     1.0  0.53572  0.87529  0.44711  1.0000
  C   C1707     1.0  0.46875  0.95641  0.31063  1.0000
  H   H3041     1.0  0.63377  0.83023  0.47524  1.0000
  H   H3042     1.0  0.52231  0.92760  0.46020  1.0000
  H   H3043     1.0  0.62749  0.79952  0.48622  1.0000
  H   H3044     1.0  0.54467  0.94790  0.36372  1.0000
  H   H3045     1.0  0.54476  0.92661  0.42781  1.0000
  H   H3046     1.0  0.50885  0.94934  0.26650  1.0000
  H   H3047     1.0  0.49249  0.93787  0.24038  1.0000
  S   S382      1.0  0.61411  0.85249  0.46910  1.0000
  H   H3048     1.0  0.56450  0.79549  0.21496  1.0000
  H   H3049     1.0  0.50311  0.72728  0.15657  1.0000
  C   C1708     1.0  0.57222  0.93573  0.39766  1.0000
  H   H3050     1.0  0.56511  0.92220  0.39935  1.0000
  C   C1709     1.0  0.46512  0.96294  0.36991  1.0000
  C   C1710     1.0  0.66250  0.80850  0.09550  1.0000
  C   C1711     1.0  0.53361  0.77684  0.22559  1.0000
  C   C1712     1.0  0.70420  0.85112  0.48686  1.0000
  H   H3051     1.0  0.53909  0.75684  0.45430  1.0000
  H   H3052     1.0  0.55297  0.77806  0.12975  1.0000
  H   H3053     1.0  0.58589  0.75084  0.03434  1.0000
  H   H3054     1.0  0.56504  0.75460  0.46284  1.0000
  H   H3055     1.0  0.55759  0.94428  0.44904  1.0000
  C   C1713     1.0  0.51616  0.73370  0.15870  1.0000
  C   C1714     1.0  0.55248  0.94094  0.36589  1.0000
  C   C1715     1.0  0.54166  0.92245  0.36057  1.0000
  C   C1716     1.0  0.70291  0.83597  0.43580  1.0000
  Fe  Fe189     1.0  0.69873  0.80879  0.36653  1.0000
  C   C1717     1.0  0.66390  0.82044  0.06716  1.0000
  H   H3056     1.0  0.64260  0.83819  0.02527  1.0000
  C   C1718     1.0  0.66052  0.83264  0.99969  1.0000
  H   H3057     1.0  0.60053  0.73284  0.43179  1.0000
  C   C1719     1.0  0.69543  0.84157  0.46082  1.0000
  H   H3058     1.0  0.49263  0.94544  0.31340  1.0000
  H   H3059     1.0  0.59411  0.69895  0.26068  1.0000
  C   C1720     1.0  0.62981  0.83530  0.08096  1.0000
  H   H3060     1.0  0.65578  0.87040  0.40082  1.0000
  H   H3061     1.0  0.51390  0.74494  0.20427  1.0000
  H   H3062     1.0  0.54843  0.91431  0.36055  1.0000
  S   S383      1.0  0.46354  0.91588  0.39481  1.0000
  H   H3063     1.0  0.54241  0.92253  0.30772  1.0000
  H   H3064     1.0  0.64536  0.80148  0.02212  1.0000
  H   H3065     1.0  0.57454  0.96800  0.42393  1.0000
  H   H3066     1.0  0.60186  0.93318  0.39981  1.0000
  H   H3067     1.0  0.54961  0.79676  0.25656  1.0000
  H   H3068     1.0  0.61437  0.80406  0.04742  1.0000
  H   H3069     1.0  0.58480  0.75062  0.43649  1.0000
  Fe  Fe190     1.0  0.70252  0.87085  0.06325  1.0000
  H   H3070     1.0  0.52089  0.72493  0.16898  1.0000
  H   H3071     1.0  0.57920  0.93753  0.37451  1.0000
  C   C1721     1.0  0.61562  0.65891  0.15421  1.0000
  H   H3072     1.0  0.64802  0.86939  0.47241  1.0000
  H   H3073     1.0  0.61165  0.75380  0.41928  1.0000
  C   C1722     1.0  0.67893  0.81025  0.10674  1.0000
  C   C1723     1.0  0.53846  0.79393  0.24306  1.0000
  C   C1724     1.0  0.62257  0.80388  0.02732  1.0000
  H   H3074     1.0  0.67619  0.87260  0.39637  1.0000
  C   C1725     1.0  0.70280  0.93405  0.18617  1.0000
  C   C1726     1.0  0.56055  0.78249  0.20600  1.0000
  H   H3075     1.0  0.60305  0.93310  0.44332  1.0000
  H   H3076     1.0  0.56702  0.89163  0.00765  1.0000
  C   C1727     1.0  0.53352  0.91985  0.32780  1.0000
  H   H3077     1.0  0.56095  0.94482  0.34491  1.0000
  H   H3078     1.0  0.52687  0.92806  0.32574  1.0000
  H   H3079     1.0  0.66348  0.88479  0.01254  1.0000
  H   H3080     1.0  0.51781  0.94600  0.46105  1.0000
  H   H3081     1.0  0.53195  0.77037  0.12722  1.0000
  H   H3082     1.0  0.54455  0.75646  0.16382  1.0000
  C   C1728     1.0  0.56033  0.74549  0.48247  1.0000
  C   C1729     1.0  0.60600  0.74591  0.44042  1.0000
  H   H3083     1.0  0.69526  0.92060  0.18545  1.0000
  C   C1730     1.0  0.47404  0.65722  0.27160  1.0000
  H   H3084     1.0  0.70183  0.93915  0.21064  1.0000
  H   H3085     1.0  0.61254  0.77687  0.02452  1.0000
  C   C1731     1.0  0.58410  0.93989  0.42605  1.0000
  S   S384      1.0  0.69933  0.89310  0.04306  1.0000
  C   C1732     1.0  0.49920  0.92304  0.27250  1.0000
  H   H3086     1.0  0.51490  0.75726  0.16948  1.0000
  H   H3087     1.0  0.66984  0.81636  0.04693  1.0000
  H   H3088     1.0  0.69651  0.74388  0.45778  1.0000
  H   H3089     1.0  0.61536  0.74714  0.45818  1.0000
  H   H3090     1.0  0.57816  0.86763  0.00900  1.0000
  H   H3091     1.0  0.54943  0.79982  0.17308  1.0000
  H   H3092     1.0  0.56191  0.77511  0.22658  1.0000
  C   C1733     1.0  0.56580  0.97571  0.38113  1.0000
  H   H3093     1.0  0.54144  0.75104  0.20475  1.0000
  H   H3094     1.0  0.52504  0.90678  0.32532  1.0000
  C   C1734     1.0  0.70610  0.75326  0.44349  1.0000
  C   C1735     1.0  0.61945  0.90803  0.00149  1.0000
  H   H3095     1.0  0.59000  0.78053  0.21275  1.0000
  C   C1736     1.0  0.54399  0.79515  0.11042  1.0000
  C   C1737     1.0  0.58956  0.78877  0.19308  1.0000
  H   H3096     1.0  0.51447  0.79195  0.25591  1.0000
  C   C1738     1.0  0.57284  0.78286  0.17940  1.0000
  C   C1739     1.0  0.53815  0.75807  0.18594  1.0000
  H   H3097     1.0  0.53387  0.76781  0.24400  1.0000
  H   H3098     1.0  0.52091  0.77302  0.21919  1.0000
  H   H3099     1.0  0.52986  0.80619  0.28083  1.0000
  N   N95       1.0  0.54340  0.77609  0.19597  1.0000
  H   H3100     1.0  0.49811  0.97234  0.48488  1.0000
  H   H3101     1.0  0.67898  0.91095  0.48914  1.0000
  H   H3102     1.0  0.46665  0.97406  0.24748  1.0000
  H   H3103     1.0  0.47357  0.65703  0.29851  1.0000
  C   C1740     1.0  0.47338  0.96098  0.49711  1.0000
  C   C1741     1.0  0.56615  0.86652  0.00230  1.0000
  H   H3104     1.0  0.50474  0.96770  0.23518  1.0000
  C   C1742     1.0  0.70497  0.84341  0.24852  1.0000
  C   C1743     1.0  0.70329  0.85983  0.20258  1.0000
  C   C1744     1.0  0.46959  0.95030  0.25287  1.0000
  H   H3105     1.0  0.60991  0.65234  0.13169  1.0000
  S   S385      1.0  0.70246  0.87832  0.18794  1.0000
  H   H3106     1.0  0.70276  0.84851  0.15560  1.0000
  C   C1745     1.0  0.49301  0.97234  0.27995  1.0000
  C   C1746     1.0  0.47019  0.94433  0.48012  1.0000
  C   C1747     1.0  0.63951  0.80936  0.48812  1.0000
  H   H3107     1.0  0.69828  0.94035  0.16814  1.0000
  C   C1748     1.0  0.58483  0.74041  0.48475  1.0000
  H   H3108     1.0  0.50765  0.90132  0.49434  1.0000
  H   H3109     1.0  0.48768  0.96933  0.34539  1.0000
  H   H3110     1.0  0.46586  0.82788  0.49853  1.0000
  H   H3111     1.0  0.55921  0.64596  0.15852  1.0000
  H   H3112     1.0  0.55733  0.64848  0.23326  1.0000
  H   H3113     1.0  0.48575  0.97362  0.45385  1.0000
  H   H3114     1.0  0.70580  0.84213  0.27435  1.0000
  H   H3115     1.0  0.56639  0.97410  0.35439  1.0000
  S   S386      1.0  0.70619  0.81226  0.24149  1.0000
  H   H3116     1.0  0.58431  0.77261  0.49678  1.0000
  H   H3117     1.0  0.62575  0.90253  0.01738  1.0000
  Fe  Fe191     1.0  0.68854  0.87691  0.58410  1.0000
  Fe  Fe192     1.0  0.70733  0.79687  0.79388  1.0000
  S   S387      1.0  0.66168  0.86440  0.58560  1.0000
  C   C1749     1.0  0.68909  0.81897  0.62969  1.0000
  S   S388      1.0  0.69993  0.89418  0.62540  1.0000
  H   H3118     1.0  0.50639  0.79490  0.92324  1.0000
  H   H3119     1.0  0.49251  0.82289  0.87930  1.0000
  S   S389      1.0  0.68874  0.80408  0.81776  1.0000
  H   H3120     1.0  0.48472  0.83766  0.54832  1.0000
  Fe  Fe193     1.0  0.67872  0.77831  0.83695  1.0000
  S   S390      1.0  0.65185  0.76633  0.84304  1.0000
  C   C1750     1.0  0.56590  0.88256  0.98754  1.0000
  C   C1751     1.0  0.59757  0.76715  0.53495  1.0000
  H   H3121     1.0  0.60932  0.84254  0.53637  1.0000
  H   H3122     1.0  0.55994  0.70734  0.57164  1.0000
  Fe  Fe194     1.0  0.57041  0.80329  0.92902  1.0000
  C   C1752     1.0  0.49135  0.80901  0.92249  1.0000
  S   S391      1.0  0.57716  0.79222  0.88340  1.0000
  H   H3123     1.0  0.55199  0.77908  0.66722  1.0000
  C   C1753     1.0  0.51758  0.74504  0.70727  1.0000
  H   H3124     1.0  0.47422  0.91153  0.82494  1.0000
  S   S392      1.0  0.56985  0.79869  0.57377  1.0000
  S   S393      1.0  0.57048  0.82905  0.92765  1.0000
  H   H3125     1.0  0.50916  0.89857  0.53721  1.0000
  Fe  Fe195     1.0  0.48808  0.92618  0.91924  1.0000
  S   S394      1.0  0.49086  0.90853  0.88193  1.0000
  S   S395      1.0  0.49534  0.95390  0.91560  1.0000
  H   H3126     1.0  0.70166  0.95161  0.60505  1.0000
  Fe  Fe196     1.0  0.49562  0.89469  0.92332  1.0000
  S   S396      1.0  0.51574  0.88542  0.91352  1.0000
  H   H3127     1.0  0.54597  0.71587  0.51074  1.0000
  S   S397      1.0  0.49514  0.91398  0.95991  1.0000
  H   H3128     1.0  0.65479  0.89925  0.58626  1.0000
  Fe  Fe197     1.0  0.55033  0.71939  0.75639  1.0000
  S   S398      1.0  0.56743  0.73663  0.72104  1.0000
  S   S399      1.0  0.53870  0.72905  0.79691  1.0000
  Fe  Fe198     1.0  0.55035  0.68778  0.72122  1.0000
  S   S400      1.0  0.56787  0.70314  0.68349  1.0000
  S   S401      1.0  0.54277  0.65929  0.72412  1.0000
  Fe  Fe199     1.0  0.58077  0.71991  0.72482  1.0000
  S   S402      1.0  0.60774  0.73158  0.72358  1.0000
  Fe  Fe200     1.0  0.55339  0.71895  0.68259  1.0000
  S   S403      1.0  0.54524  0.72681  0.63605  1.0000
  S   S404      1.0  0.56455  0.70362  0.76287  1.0000
  S   S405      1.0  0.53498  0.70259  0.71770  1.0000
  H   H3129     1.0  0.62820  0.84756  0.58140  1.0000
  H   H3130     1.0  0.60653  0.82217  0.90244  1.0000
  H   H3131     1.0  0.59563  0.75879  0.55581  1.0000
  H   H3132     1.0  0.60129  0.87495  0.86860  1.0000
  H   H3133     1.0  0.46510  0.84382  0.89158  1.0000
  C   C1754     1.0  0.56606  0.77486  0.85927  1.0000
  C   C1755     1.0  0.57414  0.76896  0.83597  1.0000
  C   C1756     1.0  0.56596  0.75479  0.81703  1.0000
  C   C1757     1.0  0.54957  0.74652  0.82100  1.0000
  C   C1758     1.0  0.54147  0.75246  0.84420  1.0000
  C   C1759     1.0  0.54967  0.76662  0.86323  1.0000
  H   H3134     1.0  0.58685  0.77524  0.83281  1.0000
  H   H3135     1.0  0.57233  0.75028  0.79932  1.0000
  H   H3136     1.0  0.52878  0.74611  0.84731  1.0000
  H   H3137     1.0  0.54333  0.77120  0.88081  1.0000
  C   C1760     1.0  0.55229  0.74690  0.61925  1.0000
  C   C1761     1.0  0.54355  0.75025  0.59471  1.0000
  C   C1762     1.0  0.54888  0.76594  0.58017  1.0000
  C   C1763     1.0  0.56298  0.77850  0.59022  1.0000
  C   C1764     1.0  0.57163  0.77521  0.61505  1.0000
  C   C1765     1.0  0.56644  0.75943  0.62917  1.0000
  H   H3138     1.0  0.53257  0.74064  0.58690  1.0000
  H   H3139     1.0  0.54189  0.76842  0.56172  1.0000
  H   H3140     1.0  0.58249  0.78488  0.62320  1.0000
  H   H3141     1.0  0.57344  0.75689  0.64752  1.0000
  C   C1766     1.0  0.52803  0.84452  0.96067  1.0000
  C   C1767     1.0  0.53514  0.85159  0.93137  1.0000
  C   C1768     1.0  0.53134  0.86419  0.91752  1.0000
  C   C1769     1.0  0.52042  0.86991  0.93275  1.0000
  C   C1770     1.0  0.51356  0.86309  0.96236  1.0000
  H   H3142     1.0  0.60113  0.90989  0.95443  1.0000
  H   H3143     1.0  0.54320  0.84699  0.91892  1.0000
  H   H3144     1.0  0.53668  0.86933  0.89452  1.0000
  H   H3145     1.0  0.62208  0.78695  0.98738  1.0000
  H   H3146     1.0  0.51101  0.73879  0.72939  1.0000
  N   N96       1.0  0.47908  0.94437  0.80051  1.0000
  H   H3147     1.0  0.66473  0.80235  0.62193  1.0000
  C   C1771     1.0  0.51953  0.95827  0.87084  1.0000
  H   H3148     1.0  0.54779  0.79541  0.71945  1.0000
  H   H3149     1.0  0.51773  0.94548  0.87480  1.0000
  C   C1772     1.0  0.63966  0.75671  0.80972  1.0000
  C   C1773     1.0  0.64621  0.75563  0.77925  1.0000
  C   C1774     1.0  0.63624  0.74797  0.75316  1.0000
  C   C1775     1.0  0.61965  0.74130  0.75722  1.0000
  C   C1776     1.0  0.61307  0.74256  0.78764  1.0000
  C   C1777     1.0  0.62306  0.75023  0.81379  1.0000
  H   H3150     1.0  0.65896  0.76055  0.77585  1.0000
  H   H3151     1.0  0.64141  0.74701  0.72975  1.0000
  H   H3152     1.0  0.60032  0.73749  0.79104  1.0000
  H   H3153     1.0  0.61790  0.75106  0.83727  1.0000
  C   C1778     1.0  0.65184  0.90202  0.63765  1.0000
  H   H3154     1.0  0.68265  0.87158  0.68728  1.0000
  H   H3155     1.0  0.65171  0.82243  0.98557  1.0000
  H   H3156     1.0  0.68734  0.95649  0.62947  1.0000
  H   H3157     1.0  0.50527  0.86750  0.97456  1.0000
  H   H3158     1.0  0.55388  0.90479  0.97422  1.0000
  H   H3159     1.0  0.69270  0.64743  0.90603  1.0000
  C   C1779     1.0  0.58187  0.76357  0.51674  1.0000
  C   C1780     1.0  0.64892  0.86096  0.55238  1.0000
  C   C1781     1.0  0.65450  0.86692  0.52145  1.0000
  H   H3160     1.0  0.63167  0.88256  0.65996  1.0000
  H   H3161     1.0  0.52042  0.73629  0.95259  1.0000
  C   C1782     1.0  0.62187  0.84940  0.53212  1.0000
  C   C1783     1.0  0.63260  0.85219  0.55756  1.0000
  Fe  Fe201     1.0  0.71187  0.77912  0.85399  1.0000
  H   H3162     1.0  0.56159  0.85621  0.98435  1.0000
  H   H3163     1.0  0.56086  0.73998  0.55010  1.0000
  H   H3164     1.0  0.51388  0.65319  0.68601  1.0000
  N   N97       1.0  0.56770  0.74116  0.94051  1.0000
  C   C1784     1.0  0.57053  0.72659  0.92552  1.0000
  C   C1785     1.0  0.56842  0.74106  0.97719  1.0000
  C   C1786     1.0  0.55111  0.73927  0.93168  1.0000
  C   C1787     1.0  0.57912  0.75744  0.92741  1.0000
  C   C1788     1.0  0.59698  0.76089  0.92999  1.0000
  C   C1789     1.0  0.56996  0.72520  0.88786  1.0000
  C   C1790     1.0  0.70341  0.71536  0.85601  1.0000
  C   C1791     1.0  0.65809  0.95703  0.57096  1.0000
  C   C1792     1.0  0.60704  0.77667  0.91213  1.0000
  C   C1793     1.0  0.57476  0.71118  0.87540  1.0000
  N   N98       1.0  0.57780  0.89064  0.96076  1.0000
  H   H3165     1.0  0.56164  0.71481  0.93526  1.0000
  H   H3166     1.0  0.58220  0.72663  0.93247  1.0000
  H   H3167     1.0  0.47637  0.95975  0.52255  1.0000
  C   C1794     1.0  0.70795  0.85736  0.97388  1.0000
  H   H3168     1.0  0.54242  0.72680  0.93887  1.0000
  H   H3169     1.0  0.55003  0.73991  0.90502  1.0000
  H   H3170     1.0  0.57661  0.75856  0.90161  1.0000
  H   H3171     1.0  0.57734  0.76801  0.93994  1.0000
  H   H3172     1.0  0.59996  0.75072  0.91919  1.0000
  H   H3173     1.0  0.60053  0.76278  0.95569  1.0000
  H   H3174     1.0  0.55779  0.72246  0.87908  1.0000
  H   H3175     1.0  0.57817  0.73675  0.87639  1.0000
  H   H3176     1.0  0.55196  0.76465  0.93501  1.0000
  H   H3177     1.0  0.50902  0.95658  0.98995  1.0000
  C   C1795     1.0  0.48691  0.84849  0.86402  1.0000
  H   H3178     1.0  0.60405  0.77549  0.88600  1.0000
  H   H3179     1.0  0.60508  0.78753  0.92276  1.0000
  H   H3180     1.0  0.61976  0.77879  0.91417  1.0000
  H   H3181     1.0  0.57392  0.71030  0.84854  1.0000
  H   H3182     1.0  0.58720  0.71359  0.88193  1.0000
  H   H3183     1.0  0.56673  0.69914  0.88556  1.0000
  H   H3184     1.0  0.50128  0.96069  0.74984  1.0000
  H   H3185     1.0  0.47780  0.93084  0.73684  1.0000
  H   H3186     1.0  0.49546  0.93561  0.77458  1.0000
  N   N99       1.0  0.65399  0.82067  0.85479  1.0000
  C   C1796     1.0  0.65367  0.80736  0.87781  1.0000
  C   C1797     1.0  0.64940  0.81297  0.82150  1.0000
  C   C1798     1.0  0.67094  0.83313  0.85264  1.0000
  C   C1799     1.0  0.64354  0.82971  0.86581  1.0000
  C   C1800     1.0  0.55798  0.77440  0.74209  1.0000
  C   C1801     1.0  0.66116  0.81357  0.91134  1.0000
  H   H3187     1.0  0.59203  0.73955  0.98162  1.0000
  C   C1802     1.0  0.63274  0.79899  0.81816  1.0000
  C   C1803     1.0  0.63046  0.79136  0.78401  1.0000
  S   S406      1.0  0.70175  0.86049  0.59266  1.0000
  C   C1804     1.0  0.65763  0.79928  0.93483  1.0000
  N   N100      1.0  0.57359  0.74606  0.50417  1.0000
  H   H3188     1.0  0.66021  0.80003  0.86681  1.0000
  H   H3189     1.0  0.64145  0.79821  0.88190  1.0000
  H   H3190     1.0  0.64962  0.82246  0.80383  1.0000
  H   H3191     1.0  0.65827  0.80790  0.81250  1.0000
  H   H3192     1.0  0.67926  0.82674  0.84897  1.0000
  H   H3193     1.0  0.67451  0.84009  0.87600  1.0000
  H   H3194     1.0  0.70041  0.85370  0.82781  1.0000
  H   H3195     1.0  0.64026  0.83532  0.84460  1.0000
  H   H3196     1.0  0.49993  0.91210  0.52341  1.0000
  C   C1805     1.0  0.69842  0.64797  0.88180  1.0000
  H   H3197     1.0  0.67424  0.81951  0.90866  1.0000
  H   H3198     1.0  0.51286  0.75444  0.70040  1.0000
  C   C1806     1.0  0.55814  0.92123  0.93448  1.0000
  C   C1807     1.0  0.46572  0.93912  0.77659  1.0000
  H   H3199     1.0  0.63084  0.78881  0.83532  1.0000
  H   H3200     1.0  0.62342  0.80408  0.82197  1.0000
  H   H3201     1.0  0.61853  0.78123  0.78233  1.0000
  H   H3202     1.0  0.63142  0.80080  0.76564  1.0000
  C   C1808     1.0  0.68321  0.93010  0.62890  1.0000
  H   H3203     1.0  0.52517  0.96892  0.96372  1.0000
  H   H3204     1.0  0.69059  0.92277  0.63350  1.0000
  H   H3205     1.0  0.49467  0.96812  0.82063  1.0000
  H   H3206     1.0  0.64479  0.79380  0.94102  1.0000
  H   H3207     1.0  0.66133  0.78956  0.92395  1.0000
  C   C1809     1.0  0.69538  0.81420  0.59804  1.0000
  H   H3208     1.0  0.47217  0.85975  0.84125  1.0000
  H   H3209     1.0  0.49797  0.93748  0.81698  1.0000
  H   H3210     1.0  0.48299  0.85427  0.91285  1.0000
  C   C1810     1.0  0.53562  0.75301  0.71442  1.0000
  H   H3211     1.0  0.67435  0.84047  0.80147  1.0000
  C   C1811     1.0  0.62736  0.85576  0.50143  1.0000
  C   C1812     1.0  0.68513  0.91886  0.51002  1.0000
  S   S407      1.0  0.70606  0.89292  0.54769  1.0000
  C   C1813     1.0  0.51010  0.96529  0.88752  1.0000
  H   H3212     1.0  0.56303  0.71030  0.51089  1.0000
  H   H3213     1.0  0.51942  0.76869  0.82442  1.0000
  H   H3214     1.0  0.54104  0.74090  0.51903  1.0000
  H   H3215     1.0  0.49974  0.85236  0.86927  1.0000
  C   C1814     1.0  0.49039  0.82425  0.90553  1.0000
  C   C1815     1.0  0.53577  0.78239  0.78618  1.0000
  H   H3216     1.0  0.66498  0.77729  0.72149  1.0000
  H   H3217     1.0  0.56878  0.86927  0.92899  1.0000
  H   H3218     1.0  0.65567  0.85059  0.97069  1.0000
  C   C1816     1.0  0.69440  0.94861  0.62757  1.0000
  H   H3219     1.0  0.69666  0.91759  0.51315  1.0000
  H   H3220     1.0  0.57326  0.92119  0.97340  1.0000
  C   C1817     1.0  0.50154  0.90032  0.51822  1.0000
  H   H3221     1.0  0.64149  0.80479  0.53906  1.0000
  C   C1818     1.0  0.55641  0.71662  0.52487  1.0000
  H   H3222     1.0  0.64173  0.80043  0.64881  1.0000
  H   H3223     1.0  0.46879  0.96611  0.83939  1.0000
  N   N101      1.0  0.47202  0.85419  0.50667  1.0000
  C   C1819     1.0  0.52035  0.96762  0.98893  1.0000
  C   C1820     1.0  0.59240  0.88413  0.91078  1.0000
  C   C1821     1.0  0.67477  0.91346  0.54055  1.0000
  H   H3224     1.0  0.64565  0.91073  0.63924  1.0000
  H   H3225     1.0  0.57546  0.72044  0.98827  1.0000
  C   C1822     1.0  0.63919  0.88440  0.63774  1.0000
  C   C1823     1.0  0.59258  0.86994  0.88871  1.0000
  C   C1824     1.0  0.57995  0.73408  0.99227  1.0000
  H   H3226     1.0  0.67584  0.92910  0.65113  1.0000
  C   C1825     1.0  0.50439  0.96678  0.77389  1.0000
  C   C1826     1.0  0.66603  0.84811  0.97883  1.0000
  C   C1827     1.0  0.48876  0.93371  0.79784  1.0000
  H   H3227     1.0  0.50031  0.90947  0.81055  1.0000
  H   H3228     1.0  0.66530  0.84449  0.70913  1.0000
  H   H3229     1.0  0.49384  0.97540  0.98326  1.0000
  H   H3230     1.0  0.69269  0.86616  0.85301  1.0000
  H   H3231     1.0  0.69298  0.70840  0.87155  1.0000
  H   H3232     1.0  0.65015  0.84045  0.88193  1.0000
  H   H3233     1.0  0.58949  0.89273  0.89534  1.0000
  H   H3234     1.0  0.60457  0.89061  0.92024  1.0000
  N   N102      1.0  0.66396  0.82108  0.65665  1.0000
  H   H3235     1.0  0.66619  0.85252  0.82677  1.0000
  H   H3236     1.0  0.66779  0.79078  0.66876  1.0000
  H   H3237     1.0  0.57730  0.73419  0.54698  1.0000
  H   H3238     1.0  0.50050  0.84620  0.51862  1.0000
  H   H3239     1.0  0.48262  0.96970  0.78884  1.0000
  H   H3240     1.0  0.69833  0.85538  0.50597  1.0000
  C   C1828     1.0  0.54264  0.79738  0.65695  1.0000
  S   S408      1.0  0.55177  0.79463  0.96897  1.0000
  C   C1829     1.0  0.51723  0.85036  0.97606  1.0000
  H   H3241     1.0  0.59611  0.86115  0.90233  1.0000
  H   H3242     1.0  0.58069  0.86316  0.87819  1.0000
  H   H3243     1.0  0.66197  0.81822  0.70870  1.0000
  H   H3244     1.0  0.54873  0.91241  0.91900  1.0000
  C   C1830     1.0  0.48965  0.96253  0.79677  1.0000
  S   S409      1.0  0.53148  0.82775  0.97786  1.0000
  H   H3245     1.0  0.63146  0.88216  0.61629  1.0000
  H   H3246     1.0  0.64481  0.87518  0.63744  1.0000
  H   H3247     1.0  0.46332  0.90708  0.51498  1.0000
  Fe  Fe202     1.0  0.46503  0.89353  0.89143  1.0000
  H   H3248     1.0  0.60672  0.76560  0.51860  1.0000
  C   C1831     1.0  0.70078  0.82820  0.98364  1.0000
  H   H3249     1.0  0.54285  0.69374  0.54980  1.0000
  H   H3250     1.0  0.54237  0.71207  0.56962  1.0000
  H   H3251     1.0  0.57395  0.76688  0.53384  1.0000
  H   H3252     1.0  0.61563  0.78712  0.56080  1.0000
  C   C1832     1.0  0.66886  0.94729  0.57061  1.0000
  H   H3253     1.0  0.69792  0.67144  0.87000  1.0000
  C   C1833     1.0  0.67474  0.84630  0.82579  1.0000
  H   H3254     1.0  0.69120  0.93576  0.56404  1.0000
  H   H3255     1.0  0.71079  0.77627  0.98377  1.0000
  C   C1834     1.0  0.68347  0.92300  0.57111  1.0000
  H   H3256     1.0  0.66709  0.87347  0.51707  1.0000
  C   C1835     1.0  0.47183  0.94221  0.83424  1.0000
  C   C1836     1.0  0.62175  0.81282  0.62282  1.0000
  S   S410      1.0  0.46984  0.87861  0.93085  1.0000
  H   H3257     1.0  0.66997  0.82231  0.60553  1.0000
  C   C1837     1.0  0.59320  0.90274  0.97434  1.0000
  H   H3258     1.0  0.64019  0.81568  0.67578  1.0000
  H   H3259     1.0  0.66984  0.84500  0.63443  1.0000
  C   C1838     1.0  0.52263  0.78051  0.81125  1.0000
  H   H3260     1.0  0.69129  0.81167  0.64928  1.0000
  H   H3261     1.0  0.61753  0.81765  0.60179  1.0000
  C   C1839     1.0  0.67122  0.81576  0.62748  1.0000
  H   H3262     1.0  0.61615  0.81555  0.64519  1.0000
  H   H3263     1.0  0.55889  0.76446  0.75736  1.0000
  H   H3264     1.0  0.69405  0.86861  0.80962  1.0000
  Fe  Fe203     1.0  0.46890  0.89876  0.96499  1.0000
  H   H3265     1.0  0.66379  0.87176  0.70038  1.0000
  N   N103      1.0  0.67292  0.92298  0.59979  1.0000
  C   C1840     1.0  0.70699  0.66594  0.87127  1.0000
  Fe  Fe204     1.0  0.70441  0.81059  0.86127  1.0000
  C   C1841     1.0  0.66270  0.90511  0.60697  1.0000
  C   C1842     1.0  0.66227  0.93222  0.59357  1.0000
  N   N104      1.0  0.47545  0.82750  0.91157  1.0000
  H   H3266     1.0  0.48369  0.83817  0.84617  1.0000
  C   C1843     1.0  0.56734  0.73481  0.53280  1.0000
  H   H3267     1.0  0.70821  0.81676  0.60041  1.0000
  H   H3268     1.0  0.69612  0.83223  0.63447  1.0000
  H   H3269     1.0  0.71031  0.86979  0.98282  1.0000
  H   H3270     1.0  0.65387  0.82538  0.52661  1.0000
  H   H3271     1.0  0.69912  0.71696  0.83185  1.0000
  H   H3272     1.0  0.54695  0.75399  0.97293  1.0000
  C   C1844     1.0  0.48716  0.86939  0.50966  1.0000
  C   C1845     1.0  0.64204  0.81520  0.52354  1.0000
  C   C1846     1.0  0.57089  0.90022  0.94003  1.0000
  H   H3273     1.0  0.59106  0.91220  0.98996  1.0000
  H   H3274     1.0  0.68901  0.80081  0.59250  1.0000
  H   H3275     1.0  0.64630  0.87350  0.96480  1.0000
  H   H3276     1.0  0.47663  0.95076  0.73104  1.0000
  H   H3277     1.0  0.50085  0.83522  0.91356  1.0000
  H   H3278     1.0  0.52405  0.75796  0.94928  1.0000
  H   H3279     1.0  0.65898  0.90352  0.65980  1.0000
  H   H3280     1.0  0.49462  0.90693  0.76841  1.0000
  H   H3281     1.0  0.46602  0.95523  0.89478  1.0000
  H   H3282     1.0  0.66953  0.94308  0.54527  1.0000
  H   H3283     1.0  0.65880  0.93657  0.61697  1.0000
  C   C1847     1.0  0.55006  0.70690  0.55591  1.0000
  Fe  Fe205     1.0  0.58940  0.83543  0.96524  1.0000
  C   C1848     1.0  0.56411  0.91188  0.95832  1.0000
  H   H3284     1.0  0.61350  0.83157  0.86396  1.0000
  H   H3285     1.0  0.64591  0.94895  0.56339  1.0000
  C   C1849     1.0  0.70388  0.84430  0.99564  1.0000
  H   H3286     1.0  0.71018  0.79658  0.98829  1.0000
  H   H3287     1.0  0.63273  0.81971  0.53184  1.0000
  H   H3288     1.0  0.65088  0.92376  0.58275  1.0000
  H   H3289     1.0  0.62349  0.84142  0.90082  1.0000
  H   H3290     1.0  0.51193  0.78073  0.79934  1.0000
  C   C1850     1.0  0.58712  0.78160  0.72876  1.0000
  C   C1851     1.0  0.57075  0.77828  0.71488  1.0000
  H   H3291     1.0  0.49326  0.81157  0.94888  1.0000
  H   H3292     1.0  0.55298  0.92914  0.94804  1.0000
  H   H3293     1.0  0.64298  0.83459  0.62749  1.0000
  H   H3294     1.0  0.59595  0.78382  0.70865  1.0000
  C   C1852     1.0  0.48474  0.86308  0.84806  1.0000
  H   H3295     1.0  0.60667  0.79389  0.52844  1.0000
  H   H3296     1.0  0.60387  0.88445  0.98367  1.0000
  H   H3297     1.0  0.56800  0.92930  0.91879  1.0000
  H   H3298     1.0  0.68201  0.79647  0.72100  1.0000
  C   C1853     1.0  0.66885  0.79096  0.72051  1.0000
  H   H3299     1.0  0.49228  0.86664  0.82583  1.0000
  H   H3300     1.0  0.70977  0.72785  0.86688  1.0000
  H   H3301     1.0  0.55356  0.87878  0.97847  1.0000
  H   H3302     1.0  0.59090  0.79269  0.74499  1.0000
  H   H3303     1.0  0.63947  0.78600  0.77846  1.0000
  C   C1854     1.0  0.70589  0.95338  0.65589  1.0000
  C   C1855     1.0  0.48923  0.81985  0.51712  1.0000
  H   H3304     1.0  0.53067  0.75653  0.77581  1.0000
  H   H3305     1.0  0.58700  0.77083  0.74270  1.0000
  S   S411      1.0  0.57016  0.83264  0.51217  1.0000
  H   H3306     1.0  0.52683  0.79089  0.82916  1.0000
  H   H3307     1.0  0.56797  0.76788  0.69732  1.0000
  C   C1856     1.0  0.48832  0.83681  0.52271  1.0000
  C   C1857     1.0  0.60436  0.78488  0.54827  1.0000
  H   H3308     1.0  0.57993  0.90815  0.92261  1.0000
  H   H3309     1.0  0.54639  0.78315  0.79984  1.0000
  H   H3310     1.0  0.48322  0.89181  0.79776  1.0000
  H   H3311     1.0  0.69924  0.81271  0.94125  1.0000
  H   H3312     1.0  0.66351  0.91514  0.53669  1.0000
  C   C1858     1.0  0.66292  0.79570  0.68947  1.0000
  H   H3313     1.0  0.49812  0.81850  0.53355  1.0000
  H   H3314     1.0  0.67185  0.90003  0.54365  1.0000
  H   H3315     1.0  0.67257  0.84623  0.95711  1.0000
  H   H3316     1.0  0.56190  0.78580  0.75742  1.0000
  C   C1859     1.0  0.64100  0.87255  0.98875  1.0000
  H   H3317     1.0  0.59602  0.78695  0.56606  1.0000
  H   H3318     1.0  0.67024  0.89780  0.60960  1.0000
  C   C1860     1.0  0.62810  0.81968  0.88496  1.0000
  C   C1861     1.0  0.69149  0.85949  0.82939  1.0000
  H   H3319     1.0  0.53828  0.74391  0.72926  1.0000
  C   C1862     1.0  0.58032  0.87761  0.93925  1.0000
  C   C1863     1.0  0.53088  0.76745  0.76207  1.0000
  H   H3320     1.0  0.57170  0.78962  0.70195  1.0000
  H   H3321     1.0  0.63093  0.81719  0.90981  1.0000
  H   H3322     1.0  0.48015  0.88547  0.54263  1.0000
  H   H3323     1.0  0.65755  0.96222  0.59556  1.0000
  H   H3324     1.0  0.48833  0.87394  0.86481  1.0000
  H   H3325     1.0  0.53852  0.79422  0.77337  1.0000
  C   C1864     1.0  0.62449  0.86482  0.99268  1.0000
  C   C1865     1.0  0.47365  0.82940  0.94775  1.0000
  H   H3326     1.0  0.47232  0.81786  0.96049  1.0000
  N   N105      1.0  0.54102  0.76963  0.73167  1.0000
  H   H3327     1.0  0.68084  0.82087  0.69266  1.0000
  C   C1866     1.0  0.49011  0.90523  0.79383  1.0000
  H   H3328     1.0  0.68090  0.95596  0.57720  1.0000
  H   H3329     1.0  0.65683  0.82279  0.92220  1.0000
  C   C1867     1.0  0.66976  0.86648  0.68223  1.0000
  H   H3330     1.0  0.54238  0.75361  0.69148  1.0000
  C   C1868     1.0  0.48537  0.88591  0.51797  1.0000
  Fe  Fe206     1.0  0.56757  0.80635  0.52195  1.0000
  H   H3331     1.0  0.66792  0.87038  0.65777  1.0000
  H   H3332     1.0  0.51832  0.76462  0.75571  1.0000
  H   H3333     1.0  0.51930  0.73792  0.65688  1.0000
  H   H3334     1.0  0.51843  0.72238  0.68595  1.0000
  H   H3335     1.0  0.64994  0.84335  0.68143  1.0000
  C   C1869     1.0  0.53160  0.96798  0.84954  1.0000
  C   C1870     1.0  0.53929  0.78300  0.71130  1.0000
  S   S412      1.0  0.61261  0.85720  0.95837  1.0000
  C   C1871     1.0  0.67059  0.83977  0.65838  1.0000
  C   C1872     1.0  0.51387  0.73205  0.68011  1.0000
  S   S413      1.0  0.69325  0.78532  0.88225  1.0000
  H   H3336     1.0  0.48127  0.94503  0.85266  1.0000
  C   C1873     1.0  0.54531  0.75250  0.94635  1.0000
  C   C1874     1.0  0.54134  0.78156  0.67395  1.0000
  H   H3337     1.0  0.71259  0.86456  0.92382  1.0000
  H   H3338     1.0  0.53100  0.77125  0.66368  1.0000
  H   H3339     1.0  0.52735  0.78348  0.71507  1.0000
  H   H3340     1.0  0.64980  0.78934  0.68962  1.0000
  C   C1875     1.0  0.63983  0.82107  0.62456  1.0000
  H   H3341     1.0  0.50084  0.72600  0.67699  1.0000
  H   H3342     1.0  0.62628  0.91146  0.97833  1.0000
  H   H3343     1.0  0.58446  0.86935  0.95312  1.0000
  C   C1876     1.0  0.61732  0.82937  0.88817  1.0000
  H   H3344     1.0  0.64475  0.81882  0.60096  1.0000
  C   C1877     1.0  0.64618  0.81407  0.65292  1.0000
  C   C1878     1.0  0.66294  0.84761  0.68440  1.0000
  Fe  Fe207     1.0  0.55331  0.82121  0.96976  1.0000
  H   H3345     1.0  0.68348  0.84468  0.66365  1.0000
  S   S414      1.0  0.69630  0.77015  0.81001  1.0000
  H   H3346     1.0  0.66407  0.79525  0.74228  1.0000
  H   H3347     1.0  0.55656  0.73344  0.98782  1.0000
  H   H3348     1.0  0.61786  0.79919  0.61968  1.0000
  C   C1879     1.0  0.66791  0.81475  0.68765  1.0000
  H   H3349     1.0  0.47060  0.85509  0.55906  1.0000
  H   H3350     1.0  0.50346  0.80112  0.88332  1.0000
  H   H3351     1.0  0.62122  0.80759  0.87347  1.0000
  S   S415      1.0  0.59042  0.81040  0.96410  1.0000
  H   H3352     1.0  0.55341  0.80798  0.66487  1.0000
  H   H3353     1.0  0.49463  0.86793  0.52929  1.0000
  H   H3354     1.0  0.54364  0.79572  0.63033  1.0000
  H   H3355     1.0  0.53196  0.80023  0.66211  1.0000
  H   H3356     1.0  0.51326  0.96270  0.78493  1.0000
  H   H3357     1.0  0.66437  0.80393  0.95745  1.0000
  H   H3358     1.0  0.69193  0.91725  0.57781  1.0000
  H   H3359     1.0  0.69402  0.82161  0.57763  1.0000
  C   C1880     1.0  0.60267  0.89541  0.99534  1.0000
  H   H3360     1.0  0.56107  0.89152  0.92507  1.0000
  C   C1881     1.0  0.47028  0.93810  0.74054  1.0000
  H   H3361     1.0  0.67417  0.85903  0.99256  1.0000
  H   H3362     1.0  0.53904  0.96260  0.83696  1.0000
  H   H3363     1.0  0.70775  0.69384  0.84080  1.0000
  C   C1882     1.0  0.70180  0.82516  0.95021  1.0000
  H   H3364     1.0  0.46382  0.92916  0.83830  1.0000
  H   H3365     1.0  0.52530  0.74623  0.91362  1.0000
  H   H3366     1.0  0.57129  0.75379  0.98739  1.0000
  S   S416      1.0  0.70861  0.83528  0.88651  1.0000
  H   H3367     1.0  0.55141  0.76236  0.50874  1.0000
  H   H3368     1.0  0.69932  0.95127  0.67942  1.0000
  C   C1883     1.0  0.47936  0.91475  0.80034  1.0000
  H   H3369     1.0  0.70598  0.83072  0.77012  1.0000
  C   C1884     1.0  0.52769  0.74791  0.93999  1.0000
  C   C1885     1.0  0.70624  0.83828  0.92852  1.0000
  H   H3370     1.0  0.66287  0.96747  0.55379  1.0000
  H   H3371     1.0  0.48042  0.79779  0.91901  1.0000
  H   H3372     1.0  0.68740  0.93196  0.50454  1.0000
  H   H3373     1.0  0.71211  0.66563  0.84681  1.0000
  C   C1886     1.0  0.70919  0.85435  0.94046  1.0000
  H   H3374     1.0  0.51658  0.81608  0.91133  1.0000
  H   H3375     1.0  0.47756  0.80976  0.52212  1.0000
  H   H3376     1.0  0.70589  0.85666  0.74708  1.0000
  C   C1887     1.0  0.70944  0.84838  0.73199  1.0000
  H   H3377     1.0  0.46963  0.91018  0.78262  1.0000
  H   H3378     1.0  0.47624  0.96489  0.62784  1.0000
  C   C1888     1.0  0.46349  0.95666  0.62902  1.0000
  C   C1889     1.0  0.70946  0.83365  0.74512  1.0000
  H   H3379     1.0  0.48459  0.83914  0.95744  1.0000
  H   H3380     1.0  0.71178  0.70082  0.90399  1.0000
  C   C1890     1.0  0.47703  0.84363  0.89603  1.0000
  C   C1891     1.0  0.50530  0.80508  0.90916  1.0000
  H   H3381     1.0  0.70504  0.78531  0.95011  1.0000
  H   H3382     1.0  0.59389  0.73900  0.50072  1.0000
  H   H3383     1.0  0.47115  0.80552  0.85695  1.0000
  H   H3384     1.0  0.51163  0.84498  0.99873  1.0000
  H   H3385     1.0  0.47149  0.85126  0.99722  1.0000
  H   H3386     1.0  0.47787  0.88868  0.50020  1.0000
  C   C1892     1.0  0.47660  0.83958  0.49909  1.0000
  C   C1893     1.0  0.54678  0.74949  0.49898  1.0000
  Fe  Fe208     1.0  0.77894  0.02994  0.13621  1.0000
  S   S417      1.0  0.77981  0.04829  0.09804  1.0000
  S   S418      1.0  0.75804  0.00454  0.13848  1.0000
  Fe  Fe209     1.0  0.80648  0.05675  0.17336  1.0000
  S   S419      1.0  0.80947  0.07664  0.13699  1.0000
  S   S420      1.0  0.81788  0.05962  0.22301  1.0000
  Fe  Fe210     1.0  0.78279  0.06675  0.13837  1.0000
  S   S421      1.0  0.77031  0.08463  0.13650  1.0000
  Fe  Fe211     1.0  0.80638  0.05668  0.09918  1.0000
  S   S422      1.0  0.81784  0.05845  0.04876  1.0000
  S   S423      1.0  0.77990  0.04805  0.17660  1.0000
  S   S424      1.0  0.80546  0.03719  0.13548  1.0000
  Fe  Fe212     1.0  0.87337  0.12989  0.34484  1.0000
  S   S425      1.0  0.89294  0.12993  0.37760  1.0000
  S   S426      1.0  0.86986  0.12256  0.29132  1.0000
  Fe  Fe213     1.0  0.86375  0.15231  0.39104  1.0000
  S   S427      1.0  0.88280  0.15467  0.42664  1.0000
  S   S428      1.0  0.84416  0.16221  0.39233  1.0000
  Fe  Fe214     1.0  0.89940  0.15738  0.38369  1.0000
  S   S429      1.0  0.92387  0.17895  0.37953  1.0000
  Fe  Fe215     1.0  0.87504  0.12712  0.41849  1.0000
  S   S430      1.0  0.87265  0.11164  0.46370  1.0000
  S   S431      1.0  0.88075  0.15744  0.34903  1.0000
  S   S432      1.0  0.85515  0.12469  0.38495  1.0000
  C   C1894     1.0  0.87502  0.27238  0.02096  1.0000
  S   S433      1.0  0.74871  0.14453  0.26186  1.0000
  S   S434      1.0  0.73362  0.16617  0.19401  1.0000
  Fe  Fe216     1.0  0.73052  0.11888  0.26719  1.0000
  S   S435      1.0  0.73617  0.09601  0.26457  1.0000
  Fe  Fe217     1.0  0.73912  0.15028  0.30929  1.0000
  S   S436      1.0  0.75929  0.16229  0.34505  1.0000
  Fe  Fe218     1.0  0.79880  0.20640  0.05327  1.0000
  S   S437      1.0  0.78845  0.22438  0.03640  1.0000
  S   S438      1.0  0.79346  0.18914  0.09694  1.0000
  H   H3387     1.0  0.80240  0.23611  0.19796  1.0000
  H   H3388     1.0  0.78240  0.98279  0.42497  1.0000
  H   H3389     1.0  0.80800  0.21962  0.30383  1.0000
  Fe  Fe219     1.0  0.81366  0.24312  0.03059  1.0000
  S   S439      1.0  0.82139  0.26893  0.05498  1.0000
  H   H3390     1.0  0.81197  0.11611  0.07417  1.0000
  S   S440      1.0  0.77382  0.21758  0.45689  1.0000
  S   S441      1.0  0.82365  0.22557  0.05073  1.0000
  H   H3391     1.0  0.77346  0.01862  0.49084  1.0000
  C   C1895     1.0  0.83515  0.28911  0.04430  1.0000
  C   C1896     1.0  0.78188  0.20680  0.30442  1.0000
  H   H3392     1.0  0.76416  0.98531  0.23303  1.0000
  H   H3393     1.0  0.89417  0.17805  0.29252  1.0000
  S   S442      1.0  0.80037  0.19641  0.00296  1.0000
  C   C1897     1.0  0.75033  0.17231  0.16719  1.0000
  C   C1898     1.0  0.75220  0.18466  0.14437  1.0000
  C   C1899     1.0  0.76528  0.18994  0.12262  1.0000
  C   C1900     1.0  0.77674  0.18301  0.12368  1.0000
  C   C1901     1.0  0.77494  0.17074  0.14667  1.0000
  C   C1902     1.0  0.76169  0.16521  0.16793  1.0000
  H   H3394     1.0  0.74343  0.19015  0.14338  1.0000
  H   H3395     1.0  0.76649  0.19938  0.10507  1.0000
  H   H3396     1.0  0.78372  0.16528  0.14768  1.0000
  H   H3397     1.0  0.76017  0.15537  0.18468  1.0000
  C   C1903     1.0  0.76941  0.20162  0.42687  1.0000
  C   C1904     1.0  0.75671  0.19887  0.40576  1.0000
  C   C1905     1.0  0.75315  0.18661  0.38106  1.0000
  C   C1906     1.0  0.76243  0.17714  0.37695  1.0000
  C   C1907     1.0  0.77521  0.18002  0.39785  1.0000
  C   C1908     1.0  0.77860  0.19207  0.42285  1.0000
  H   H3398     1.0  0.74955  0.20621  0.40862  1.0000
  H   H3399     1.0  0.74334  0.18460  0.36506  1.0000
  H   H3400     1.0  0.78256  0.17289  0.39469  1.0000
  H   H3401     1.0  0.78849  0.19414  0.43868  1.0000
  C   C1909     1.0  0.84373  0.17560  0.42458  1.0000
  C   C1910     1.0  0.83114  0.18103  0.42739  1.0000
  C   C1911     1.0  0.83028  0.19124  0.45360  1.0000
  C   C1912     1.0  0.88357  0.25477  0.08877  1.0000
  H   H3402     1.0  0.94528  0.17088  0.29676  1.0000
  C   C1913     1.0  0.85563  0.18069  0.44774  1.0000
  H   H3403     1.0  0.82205  0.17741  0.40921  1.0000
  H   H3404     1.0  0.82053  0.19536  0.45568  1.0000
  H   H3405     1.0  0.85509  0.16902  0.27113  1.0000
  H   H3406     1.0  0.86554  0.17687  0.44545  1.0000
  H   H3407     1.0  0.80405  0.16643  0.25273  1.0000
  C   C1914     1.0  0.94349  0.18094  0.36790  1.0000
  H   H3408     1.0  0.85980  0.15258  0.28761  1.0000
  H   H3409     1.0  0.93985  0.15547  0.37467  1.0000
  C   C1915     1.0  0.83139  0.07788  0.24187  1.0000
  C   C1916     1.0  0.83344  0.07807  0.27559  1.0000
  C   C1917     1.0  0.84470  0.09192  0.29137  1.0000
  C   C1918     1.0  0.85431  0.10559  0.27339  1.0000
  C   C1919     1.0  0.85209  0.10555  0.23977  1.0000
  C   C1920     1.0  0.84058  0.09184  0.22410  1.0000
  H   H3410     1.0  0.82642  0.06731  0.28951  1.0000
  H   H3411     1.0  0.84635  0.09174  0.31720  1.0000
  H   H3412     1.0  0.85948  0.11607  0.22565  1.0000
  H   H3413     1.0  0.83916  0.09184  0.19816  1.0000
  H   H3414     1.0  0.83747  0.26156  0.16016  1.0000
  H   H3415     1.0  0.86830  0.29832  0.06256  1.0000
  H   H3416     1.0  0.80346  0.21366  0.24777  1.0000
  C   C1921     1.0  0.83086  0.07666  0.02921  1.0000
  C   C1922     1.0  0.83875  0.09142  0.04634  1.0000
  H   H3417     1.0  0.87493  0.09944  0.06731  1.0000
  H   H3418     1.0  0.77812  0.28098  0.44825  1.0000
  H   H3419     1.0  0.96027  0.18881  0.49400  1.0000
  H   H3420     1.0  0.83664  0.09206  0.07213  1.0000
  H   H3421     1.0  0.77494  0.29093  0.48383  1.0000
  C   C1923     1.0  0.76090  0.08776  0.17231  1.0000
  C   C1924     1.0  0.75549  0.10077  0.17417  1.0000
  C   C1925     1.0  0.74816  0.10363  0.20265  1.0000
  C   C1926     1.0  0.74589  0.09323  0.22912  1.0000
  C   C1927     1.0  0.75110  0.08012  0.22718  1.0000
  C   C1928     1.0  0.75863  0.07743  0.19890  1.0000
  H   H3422     1.0  0.75693  0.10864  0.15359  1.0000
  H   H3423     1.0  0.74409  0.11373  0.20396  1.0000
  H   H3424     1.0  0.74928  0.07200  0.24758  1.0000
  H   H3425     1.0  0.76252  0.06725  0.19762  1.0000
  H   H3426     1.0  0.80009  0.27288  0.43096  1.0000
  C   C1929     1.0  0.85445  0.10072  0.48444  1.0000
  S   S443      1.0  0.72052  0.15729  0.28578  1.0000
  H   H3427     1.0  0.88767  0.29849  0.05759  1.0000
  H   H3428     1.0  0.80090  0.11612  0.12482  1.0000
  H   H3429     1.0  0.73048  0.99737  0.07395  1.0000
  H   H3430     1.0  0.78669  0.00455  0.43083  1.0000
  H   H3431     1.0  0.91111  0.19486  0.30849  1.0000
  H   H3432     1.0  0.80149  0.15025  0.41201  1.0000
  H   H3433     1.0  0.79166  0.08759  0.08011  1.0000
  C   C1930     1.0  0.87881  0.08434  0.02784  1.0000
  H   H3434     1.0  0.78132  0.11509  0.04210  1.0000
  H   H3435     1.0  0.78420  0.12121  0.13484  1.0000
  C   C1931     1.0  0.84354  0.29229  0.01477  1.0000
  H   H3436     1.0  0.80177  0.15148  0.11606  1.0000
  C   C1932     1.0  0.81142  0.16483  0.04998  1.0000
  C   C1933     1.0  0.85799  0.27362  0.10738  1.0000
  C   C1934     1.0  0.79599  0.09249  0.05565  1.0000
  H   H3437     1.0  0.79066  0.14825  0.48811  1.0000
  C   C1935     1.0  0.76131  0.00751  0.04910  1.0000
  H   H3438     1.0  0.75655  0.18221  0.27723  1.0000
  H   H3439     1.0  0.77512  0.13917  0.04853  1.0000
  C   C1936     1.0  0.84938  0.25548  0.11827  1.0000
  C   C1937     1.0  0.83446  0.25335  0.13834  1.0000
  H   H3440     1.0  0.80539  0.30026  0.44143  1.0000
  H   H3441     1.0  0.76763  0.01481  0.07040  1.0000
  H   H3442     1.0  0.91556  0.12877  0.00816  1.0000
  H   H3443     1.0  0.90838  0.26043  0.09993  1.0000
  H   H3444     1.0  0.80562  0.08830  0.04822  1.0000
  H   H3445     1.0  0.89078  0.30358  0.12036  1.0000
  H   H3446     1.0  0.78421  0.12205  0.45907  1.0000
  C   C1938     1.0  0.80626  0.26870  0.44955  1.0000
  C   C1939     1.0  0.92743  0.12205  0.33214  1.0000
  H   H3447     1.0  0.75143  0.20600  0.29073  1.0000
  C   C1940     1.0  0.77604  0.25796  0.48561  1.0000
  H   H3448     1.0  0.75384  0.02781  0.03857  1.0000
  H   H3449     1.0  0.82936  0.28797  0.43821  1.0000
  H   H3450     1.0  0.79190  0.22545  0.25633  1.0000
  H   H3451     1.0  0.77316  0.19766  0.32084  1.0000
  H   H3452     1.0  0.85732  0.25191  0.13371  1.0000
  H   H3453     1.0  0.79440  0.22190  0.16453  1.0000
  C   C1941     1.0  0.80575  0.14571  0.04700  1.0000
  C   C1942     1.0  0.79504  0.13270  0.45160  1.0000
  H   H3454     1.0  0.88003  0.07229  0.02546  1.0000
  H   H3455     1.0  0.82868  0.24029  0.14618  1.0000
  H   H3456     1.0  0.78389  0.15430  0.07923  1.0000
  H   H3457     1.0  0.79794  0.23471  0.34464  1.0000
  H   H3458     1.0  0.78938  0.21612  0.36840  1.0000
  H   H3459     1.0  0.93735  0.16457  0.47767  1.0000
  C   C1943     1.0  0.80271  0.14006  0.10538  1.0000
  H   H3460     1.0  0.89609  0.28095  0.08424  1.0000
  H   H3461     1.0  0.80047  0.20132  0.32858  1.0000
  H   H3462     1.0  0.79883  0.18996  0.27992  1.0000
  H   H3463     1.0  0.91778  0.12034  0.35019  1.0000
  H   H3464     1.0  0.93722  0.18229  0.45634  1.0000
  H   H3465     1.0  0.78522  0.13101  0.40368  1.0000
  C   C1944     1.0  0.80423  0.27530  0.48391  1.0000
  N   N106      1.0  0.91824  0.14737  0.26485  1.0000
  C   C1945     1.0  0.91719  0.13979  0.29777  1.0000
  C   C1946     1.0  0.90999  0.15940  0.26618  1.0000
  C   C1947     1.0  0.90912  0.13352  0.24161  1.0000
  C   C1948     1.0  0.93517  0.15573  0.25247  1.0000
  H   H3466     1.0  0.83930  0.10174  0.44611  1.0000
  C   C1949     1.0  0.92241  0.12483  0.29847  1.0000
  C   C1950     1.0  0.90665  0.13879  0.20720  1.0000
  C   C1951     1.0  0.88313  0.30726  0.10438  1.0000
  C   C1952     1.0  0.88450  0.27270  0.09499  1.0000
  C   C1953     1.0  0.85487  0.30832  0.00820  1.0000
  H   H3467     1.0  0.77696  0.98629  0.11218  1.0000
  C   C1954     1.0  0.89982  0.12376  0.18450  1.0000
  H   H3468     1.0  0.90473  0.13532  0.30721  1.0000
  H   H3469     1.0  0.92404  0.14915  0.31604  1.0000
  H   H3470     1.0  0.84559  0.24675  0.09753  1.0000
  H   H3471     1.0  0.90908  0.19153  0.26526  1.0000
  H   H3472     1.0  0.89714  0.12609  0.25188  1.0000
  H   H3473     1.0  0.91514  0.12467  0.23827  1.0000
  H   H3474     1.0  0.93882  0.14690  0.23783  1.0000
  H   H3475     1.0  0.93607  0.16571  0.23529  1.0000
  H   H3476     1.0  0.72688  0.01542  0.06274  1.0000
  C   C1955     1.0  0.78396  0.28722  0.47103  1.0000
  H   H3477     1.0  0.91232  0.11338  0.29098  1.0000
  H   H3478     1.0  0.93246  0.12648  0.28144  1.0000
  H   H3479     1.0  0.91800  0.14745  0.19655  1.0000
  H   H3480     1.0  0.89799  0.14490  0.20812  1.0000
  H   H3481     1.0  0.74180  0.00830  0.01929  1.0000
  C   C1956     1.0  0.89640  0.25155  0.10726  1.0000
  C   C1957     1.0  0.78023  0.14090  0.07328  1.0000
  H   H3482     1.0  0.82968  0.14093  0.45231  1.0000
  C   C1958     1.0  0.79831  0.21234  0.32069  1.0000
  H   H3483     1.0  0.80244  0.99684  0.43304  1.0000
  H   H3484     1.0  0.89711  0.15267  0.27186  1.0000
  H   H3485     1.0  0.85305  0.26923  0.04558  1.0000
  H   H3486     1.0  0.90820  0.11737  0.18146  1.0000
  H   H3487     1.0  0.88830  0.11490  0.19426  1.0000
  H   H3488     1.0  0.89775  0.12782  0.16033  1.0000
  H   H3489     1.0  0.77357  0.98828  0.47921  1.0000
  C   C1959     1.0  0.87745  0.29520  0.07492  1.0000
  H   H3490     1.0  0.80323  0.02291  0.05361  1.0000
  H   H3491     1.0  0.81517  0.16929  0.07497  1.0000
  H   H3492     1.0  0.75913  0.98102  0.19103  1.0000
  N   N107      1.0  0.81263  0.12030  0.30693  1.0000
  C   C1960     1.0  0.81081  0.10735  0.33205  1.0000
  C   C1961     1.0  0.81150  0.11290  0.27307  1.0000
  C   C1962     1.0  0.82911  0.13357  0.31048  1.0000
  C   C1963     1.0  0.80078  0.12836  0.31206  1.0000
  C   C1964     1.0  0.78303  0.11672  0.31128  1.0000
  C   C1965     1.0  0.81119  0.11308  0.36804  1.0000
  C   C1966     1.0  0.83449  0.14716  0.28417  1.0000
  C   C1967     1.0  0.79981  0.09467  0.26788  1.0000
  C   C1968     1.0  0.79729  0.09029  0.23183  1.0000
  C   C1969     1.0  0.77240  0.12574  0.32274  1.0000
  C   C1970     1.0  0.80999  0.09915  0.39098  1.0000
  C   C1971     1.0  0.85157  0.15920  0.28966  1.0000
  H   H3493     1.0  0.82025  0.10231  0.32822  1.0000
  H   H3494     1.0  0.79948  0.09651  0.32940  1.0000
  H   H3495     1.0  0.80853  0.12072  0.25547  1.0000
  H   H3496     1.0  0.82324  0.11291  0.26489  1.0000
  H   H3497     1.0  0.83812  0.12782  0.31075  1.0000
  H   H3498     1.0  0.83022  0.14035  0.33398  1.0000
  H   H3499     1.0  0.80309  0.13559  0.33525  1.0000
  H   H3500     1.0  0.80229  0.13766  0.29304  1.0000
  H   H3501     1.0  0.78036  0.10586  0.32704  1.0000
  H   H3502     1.0  0.77962  0.11240  0.28603  1.0000
  H   H3503     1.0  0.82231  0.12369  0.37378  1.0000
  H   H3504     1.0  0.80105  0.11677  0.37368  1.0000
  H   H3505     1.0  0.82694  0.15452  0.28497  1.0000
  H   H3506     1.0  0.83405  0.14176  0.25948  1.0000
  H   H3507     1.0  0.80477  0.08617  0.27861  1.0000
  H   H3508     1.0  0.78803  0.09206  0.27921  1.0000
  H   H3509     1.0  0.79120  0.09757  0.22044  1.0000
  H   H3510     1.0  0.80878  0.09272  0.21904  1.0000
  H   H3511     1.0  0.78979  0.07692  0.22890  1.0000
  H   H3512     1.0  0.77438  0.13673  0.30769  1.0000
  H   H3513     1.0  0.75973  0.11729  0.32070  1.0000
  H   H3514     1.0  0.77469  0.12981  0.34843  1.0000
  H   H3515     1.0  0.79862  0.08838  0.38761  1.0000
  H   H3516     1.0  0.82003  0.09512  0.38660  1.0000
  H   H3517     1.0  0.81051  0.10362  0.41649  1.0000
  H   H3518     1.0  0.85273  0.16518  0.31404  1.0000
  H   H3519     1.0  0.95030  0.15324  0.29125  1.0000
  H   H3520     1.0  0.81440  0.00859  0.09042  1.0000
  C   C1972     1.0  0.83113  0.13592  0.47596  1.0000
  H   H3521     1.0  0.80399  0.12779  0.44325  1.0000
  H   H3522     1.0  0.77911  0.17612  0.28909  1.0000
  Fe  Fe220     1.0  0.72941  0.14998  0.23857  1.0000
  H   H3523     1.0  0.80022  0.12319  0.18253  1.0000
  H   H3524     1.0  0.78454  0.05844  0.00784  1.0000
  H   H3525     1.0  0.75582  0.15036  0.09351  1.0000
  C   C1973     1.0  0.79905  0.22294  0.35104  1.0000
  C   C1974     1.0  0.78643  0.18554  0.27135  1.0000
  H   H3526     1.0  0.79983  0.98878  0.07814  1.0000
  C   C1975     1.0  0.79695  0.00642  0.49518  1.0000
  H   H3527     1.0  0.77594  0.25456  0.45945  1.0000
  H   H3528     1.0  0.77856  0.21778  0.30483  1.0000
  H   H3529     1.0  0.74201  0.01744  0.09159  1.0000
  H   H3530     1.0  0.81666  0.14292  0.04659  1.0000
  H   H3531     1.0  0.78505  0.03405  0.03479  1.0000
  C   C1976     1.0  0.94832  0.16323  0.27826  1.0000
  H   H3532     1.0  0.78905  0.01132  0.08357  1.0000
  C   C1977     1.0  0.78638  0.99120  0.47508  1.0000
  C   C1978     1.0  0.80669  0.00166  0.07022  1.0000
  C   C1979     1.0  0.75232  0.13671  0.09212  1.0000
  H   H3533     1.0  0.78208  0.19886  0.20155  1.0000
  N   N108      1.0  0.79435  0.13592  0.07318  1.0000
  C   C1980     1.0  0.90708  0.18525  0.28899  1.0000
  H   H3534     1.0  0.77721  0.98797  0.04430  1.0000
  H   H3535     1.0  0.81568  0.14322  0.10200  1.0000
  H   H3536     1.0  0.82586  0.25627  0.12356  1.0000
  C   C1981     1.0  0.79719  0.12647  0.13161  1.0000
  H   H3537     1.0  0.86555  0.07744  0.07310  1.0000
  H   H3538     1.0  0.88672  0.08773  0.07793  1.0000
  H   H3539     1.0  0.81057  0.22592  0.36321  1.0000
  C   C1982     1.0  0.82374  0.27426  0.43957  1.0000
  C   C1983     1.0  0.85483  0.19093  0.47383  1.0000
  H   H3540     1.0  0.80106  0.25493  0.44928  1.0000
  H   H3541     1.0  0.95123  0.20714  0.35956  1.0000
  S   S444      1.0  0.72212  0.12400  0.31588  1.0000
  H   H3542     1.0  0.93825  0.13269  0.33958  1.0000
  C   C1984     1.0  0.84867  0.13897  0.47914  1.0000
  H   H3543     1.0  0.92891  0.18192  0.28470  1.0000
  C   C1985     1.0  0.79561  0.01026  0.06132  1.0000
  C   C1986     1.0  0.79178  0.16202  0.24340  1.0000
  H   H3544     1.0  0.86256  0.28075  0.13009  1.0000
  H   H3545     1.0  0.80972  0.15708  0.47021  1.0000
  H   H3546     1.0  0.80173  0.16881  0.04334  1.0000
  C   C1987     1.0  0.91642  0.17404  0.29048  1.0000
  H   H3547     1.0  0.91068  0.16521  0.24221  1.0000
  C   C1988     1.0  0.79794  0.30324  0.46012  1.0000
  C   C1989     1.0  0.79878  0.22301  0.18974  1.0000
  H   H3548     1.0  0.83024  0.26991  0.45724  1.0000
  C   C1990     1.0  0.83975  0.09747  0.47031  1.0000
  H   H3549     1.0  0.81440  0.00142  0.04917  1.0000
  H   H3550     1.0  0.78362  0.15297  0.26051  1.0000
  H   H3551     1.0  0.77062  0.13613  0.12272  1.0000
  H   H3552     1.0  0.78915  0.98031  0.48110  1.0000
  C   C1991     1.0  0.82560  0.08828  0.48718  1.0000
  H   H3553     1.0  0.78112  0.10981  0.08301  1.0000
  C   C1992     1.0  0.84983  0.10523  0.03026  1.0000
  C   C1993     1.0  0.76661  0.13209  0.09767  1.0000
  H   H3554     1.0  0.86015  0.25393  0.05449  1.0000
  C   C1994     1.0  0.94833  0.16759  0.36812  1.0000
  H   H3555     1.0  0.74310  0.13103  0.11108  1.0000
  H   H3556     1.0  0.93018  0.11073  0.33174  1.0000
  C   C1995     1.0  0.83824  0.30221  0.06699  1.0000
  H   H3557     1.0  0.73195  0.18851  0.24973  1.0000
  C   C1996     1.0  0.79103  0.21298  0.24764  1.0000
  C   C1997     1.0  0.73621  0.01085  0.06916  1.0000
  H   H3558     1.0  0.76354  0.21827  0.25862  1.0000
  H   H3559     1.0  0.88544  0.25275  0.06261  1.0000
  H   H3560     1.0  0.81755  0.13806  0.16291  1.0000
  H   H3561     1.0  0.79540  0.18512  0.22173  1.0000
  H   H3562     1.0  0.84890  0.27807  0.09843  1.0000
  C   C1998     1.0  0.80439  0.13327  0.16449  1.0000
  N   N109      1.0  0.87110  0.27690  0.08229  1.0000
  H   H3563     1.0  0.81432  0.08555  0.47570  1.0000
  H   H3564     1.0  0.76240  0.11843  0.09563  1.0000
  H   H3565     1.0  0.85256  0.13353  0.45779  1.0000
  H   H3566     1.0  0.88571  0.27527  0.12155  1.0000
  H   H3567     1.0  0.87275  0.30746  0.11872  1.0000
  H   H3568     1.0  0.91537  0.16946  0.31549  1.0000
  H   H3569     1.0  0.80758  0.11564  0.03186  1.0000
  H   H3570     1.0  0.76155  0.18760  0.23666  1.0000
  C   C1999     1.0  0.78892  0.11779  0.06395  1.0000
  H   H3571     1.0  0.88731  0.27382  0.02650  1.0000
  H   H3572     1.0  0.80059  0.14334  0.17290  1.0000
  H   H3573     1.0  0.80924  0.21947  0.18950  1.0000
  H   H3574     1.0  0.78617  0.08729  0.03817  1.0000
  H   H3575     1.0  0.74415  0.20134  0.21782  1.0000
  H   H3576     1.0  0.79137  0.99859  0.01377  1.0000
  H   H3577     1.0  0.79140  0.15560  0.21976  1.0000
  C   C2000     1.0  0.75309  0.98422  0.12167  1.0000
  H   H3578     1.0  0.85624  0.11643  0.04394  1.0000
  C   C2001     1.0  0.74837  0.01418  0.04142  1.0000
  C   C2002     1.0  0.78565  0.21155  0.21172  1.0000
  H   H3579     1.0  0.77525  0.21507  0.20977  1.0000
  C   C2003     1.0  0.75530  0.20559  0.26509  1.0000
  H   H3580     1.0  0.77483  0.17167  0.22797  1.0000
  C   C2004     1.0  0.74725  0.23781  0.48251  1.0000
  H   H3581     1.0  0.90343  0.07105  0.01852  1.0000
  H   H3582     1.0  0.73500  0.21006  0.24809  1.0000
  H   H3583     1.0  0.83184  0.29994  0.08992  1.0000
  N   N110      1.0  0.78075  0.19964  0.27041  1.0000
  C   C2005     1.0  0.74072  0.20104  0.24387  1.0000
  C   C2006     1.0  0.78670  0.17657  0.23884  1.0000
  C   C2007     1.0  0.76343  0.19291  0.26157  1.0000
  C   C2008     1.0  0.80233  0.11140  0.05621  1.0000
  H   H3584     1.0  0.82475  0.26889  0.41540  1.0000
  N   N111      1.0  0.77291  0.00811  0.02210  1.0000
  C   C2009     1.0  0.94368  0.17391  0.45912  1.0000
  C   C2010     1.0  0.78402  0.00045  0.03426  1.0000
  H   H3585     1.0  0.78427  0.30978  0.42409  1.0000
  C   C2011     1.0  0.84217  0.19622  0.47688  1.0000
  H   H3586     1.0  0.87195  0.24531  0.09607  1.0000
  H   H3587     1.0  0.74713  0.13213  0.06802  1.0000
  H   H3588     1.0  0.90326  0.10198  0.03002  1.0000
  C   C2012     1.0  0.78279  0.02584  0.01292  1.0000
  H   H3589     1.0  0.86778  0.08314  0.01541  1.0000
  H   H3590     1.0  0.94343  0.16729  0.43578  1.0000
  C   C2013     1.0  0.86412  0.26750  0.05152  1.0000
  H   H3591     1.0  0.75539  0.99470  0.05818  1.0000
  C   C2014     1.0  0.87644  0.08749  0.06376  1.0000
  H   H3592     1.0  0.78207  0.14624  0.42984  1.0000
  H   H3593     1.0  0.89469  0.25271  0.13380  1.0000
  H   H3594     1.0  0.82457  0.12235  0.47570  1.0000
  H   H3595     1.0  0.89567  0.23879  0.10176  1.0000
  C   C2015     1.0  0.79071  0.14060  0.42259  1.0000
  C   C2016     1.0  0.80103  0.14527  0.48018  1.0000
  H   H3596     1.0  0.74811  0.23713  0.45566  1.0000
  C   C2017     1.0  0.78974  0.99409  0.43879  1.0000
  H   H3597     1.0  0.87535  0.28435  0.01162  1.0000
  H   H3598     1.0  0.73484  0.23585  0.48947  1.0000
  H   H3599     1.0  0.75480  0.26429  0.48592  1.0000
  H   H3600     1.0  0.80583  0.30968  0.48025  1.0000
  C   C2018     1.0  0.75856  0.25462  0.49542  1.0000
  H   H3601     1.0  0.88946  0.10959  0.01422  1.0000
  C   C2019     1.0  0.89317  0.09882  0.01305  1.0000
  N   N112      1.0  0.78802  0.27535  0.49166  1.0000
  H   H3602     1.0  0.75008  0.22768  0.49299  1.0000
  H   H3603     1.0  0.80037  0.14201  0.02261  1.0000
  C   C2020     1.0  0.95481  0.19670  0.35993  1.0000
  H   H3604     1.0  0.85605  0.15242  0.48033  1.0000
  H   H3605     1.0  0.82195  0.17026  0.00144  1.0000
  H   H3606     1.0  0.81365  0.28777  0.48731  1.0000
  Fe  Fe221     1.0  0.82449  0.21687  0.99951  1.0000
  H   H3607     1.0  0.80918  0.00672  0.49243  1.0000
  C   C2021     1.0  0.82541  0.17351  0.02710  1.0000
  H   H3608     1.0  0.79478  0.02700  0.00387  1.0000
  S   S445      1.0  0.81677  0.23740  0.49365  1.0000
  H   H3609     1.0  0.82917  0.18710  0.03037  1.0000
  H   H3610     1.0  0.86411  0.19487  0.49164  1.0000
  H   H3611     1.0  0.72139  0.10254  0.15819  1.0000
  H   H3612     1.0  0.86937  0.24754  0.00111  1.0000
  H   H3613     1.0  0.71721  0.04260  0.24114  1.0000
  C   C2022     1.0  0.96079  0.18364  0.46942  1.0000
  H   H3614     1.0  0.83566  0.17017  0.03249  1.0000
  H   H3615     1.0  0.80060  0.11419  0.49304  1.0000
  H   H3616     1.0  0.79745  0.01781  0.48282  1.0000
  H   H3617     1.0  0.83167  0.15821  0.49821  1.0000
  Fe  Fe222     1.0  0.79103  0.22020  0.49789  1.0000
  H   H3618     1.0  0.77948  0.24881  0.49841  1.0000
  Fe  Fe223     1.0  0.78431  0.03262  0.63532  1.0000
  S   S446      1.0  0.77532  0.04312  0.59483  1.0000
  S   S447      1.0  0.77926  0.00478  0.63876  1.0000
  Fe  Fe224     1.0  0.80395  0.06735  0.66409  1.0000
  S   S448      1.0  0.79602  0.07965  0.62461  1.0000
  S   S449      1.0  0.81867  0.08822  0.69881  1.0000
  Fe  Fe225     1.0  0.77186  0.06026  0.63276  1.0000
  S   S450      1.0  0.75201  0.06948  0.62919  1.0000
  Fe  Fe226     1.0  0.80030  0.06197  0.58959  1.0000
  S   S451      1.0  0.80770  0.06979  0.53732  1.0000
  S   S452      1.0  0.77916  0.04872  0.67434  1.0000
  S   S453      1.0  0.80986  0.05057  0.62808  1.0000
  Fe  Fe227     1.0  0.87409  0.12209  0.85196  1.0000
  S   S454      1.0  0.89138  0.12332  0.89160  1.0000
  S   S455      1.0  0.86726  0.10064  0.81511  1.0000
  Fe  Fe228     1.0  0.86891  0.15206  0.87852  1.0000
  S   S456      1.0  0.88573  0.15550  0.91896  1.0000
  S   S457      1.0  0.85470  0.16795  0.87117  1.0000
  Fe  Fe229     1.0  0.90235  0.15083  0.88251  1.0000
  S   S458      1.0  0.92839  0.16841  0.89221  1.0000
  Fe  Fe230     1.0  0.87373  0.12804  0.92539  1.0000
  S   S459      1.0  0.86852  0.12153  0.97891  1.0000
  S   S460      1.0  0.88609  0.14934  0.84084  1.0000
  S   S461      1.0  0.85587  0.12485  0.88671  1.0000
  H   H3619     1.0  0.79728  0.11162  0.67257  1.0000
  S   S462      1.0  0.73801  0.13741  0.75712  1.0000
  S   S463      1.0  0.72233  0.16373  0.69833  1.0000
  C   C2023     1.0  0.91322  0.19857  0.86795  1.0000
  H   H3620     1.0  0.89614  0.09319  0.90991  1.0000
  H   H3621     1.0  0.78162  0.05425  0.79662  1.0000
  S   S464      1.0  0.75099  0.15308  0.84074  1.0000
  Fe  Fe231     1.0  0.79388  0.21063  0.56805  1.0000
  S   S465      1.0  0.78725  0.23057  0.54676  1.0000
  S   S466      1.0  0.78596  0.19427  0.61297  1.0000
  H   H3622     1.0  0.86165  0.20647  0.84913  1.0000
  H   H3623     1.0  0.90030  0.20306  0.98509  1.0000
  C   C2024     1.0  0.90627  0.11349  0.96404  1.0000
  Fe  Fe232     1.0  0.81349  0.24658  0.54369  1.0000
  S   S467      1.0  0.82230  0.27325  0.56461  1.0000
  H   H3624     1.0  0.82783  0.17150  0.54092  1.0000
  S   S468      1.0  0.77202  0.21060  0.94863  1.0000
  S   S469      1.0  0.81975  0.22730  0.56845  1.0000
  C   C2025     1.0  0.88814  0.08226  0.92332  1.0000
  C   C2026     1.0  0.83640  0.29347  0.55457  1.0000
  H   H3625     1.0  0.89497  0.21120  0.93066  1.0000
  C   C2027     1.0  0.84363  0.29728  0.52390  1.0000
  H   H3626     1.0  0.81631  0.21777  0.68867  1.0000
  H   H3627     1.0  0.78499  0.29671  0.58397  1.0000
  C   C2028     1.0  0.74000  0.17204  0.67444  1.0000
  C   C2029     1.0  0.74124  0.18369  0.65045  1.0000
  C   C2030     1.0  0.75512  0.19054  0.63110  1.0000
  C   C2031     1.0  0.76795  0.18585  0.63571  1.0000
  C   C2032     1.0  0.76669  0.17424  0.65979  1.0000
  C   C2033     1.0  0.75280  0.16733  0.67895  1.0000
  H   H3628     1.0  0.73140  0.18740  0.64669  1.0000
  H   H3629     1.0  0.75593  0.19947  0.61272  1.0000
  H   H3630     1.0  0.77651  0.17047  0.66345  1.0000
  H   H3631     1.0  0.75196  0.15825  0.69696  1.0000
  C   C2034     1.0  0.76599  0.19417  0.91951  1.0000
  C   C2035     1.0  0.75245  0.19146  0.90086  1.0000
  C   C2036     1.0  0.74749  0.17879  0.87696  1.0000
  C   C2037     1.0  0.75614  0.16879  0.87128  1.0000
  C   C2038     1.0  0.76971  0.17157  0.88975  1.0000
  C   C2039     1.0  0.77459  0.18414  0.91380  1.0000
  H   H3632     1.0  0.74577  0.19922  0.90504  1.0000
  H   H3633     1.0  0.73706  0.17684  0.86289  1.0000
  H   H3634     1.0  0.77652  0.16395  0.88549  1.0000
  H   H3635     1.0  0.78507  0.18613  0.92777  1.0000
  C   C2040     1.0  0.85080  0.17860  0.90509  1.0000
  C   C2041     1.0  0.85820  0.17929  0.93468  1.0000
  S   S470      1.0  0.72246  0.08823  0.75661  1.0000
  C   C2042     1.0  0.84721  0.19887  0.95627  1.0000
  C   C2043     1.0  0.83898  0.19739  0.92745  1.0000
  C   C2044     1.0  0.84092  0.18742  0.90179  1.0000
  H   H3636     1.0  0.86536  0.17213  0.93799  1.0000
  C   C2045     1.0  0.89959  0.20284  0.91699  1.0000
  H   H3637     1.0  0.83163  0.20444  0.92446  1.0000
  H   H3638     1.0  0.83499  0.18681  0.87913  1.0000
  C   C2046     1.0  0.77996  0.16978  0.75552  1.0000
  H   H3639     1.0  0.92358  0.18824  0.79049  1.0000
  H   H3640     1.0  0.80602  0.20176  0.73894  1.0000
  H   H3641     1.0  0.94274  0.16248  0.83049  1.0000
  C   C2047     1.0  0.83192  0.09102  0.73140  1.0000
  C   C2048     1.0  0.83702  0.10611  0.74890  1.0000
  C   C2049     1.0  0.84745  0.10905  0.77510  1.0000
  C   C2050     1.0  0.85328  0.09708  0.78360  1.0000
  C   C2051     1.0  0.84830  0.08203  0.76589  1.0000
  C   C2052     1.0  0.83757  0.07893  0.74011  1.0000
  H   H3642     1.0  0.83291  0.11563  0.74215  1.0000
  H   H3643     1.0  0.85124  0.12071  0.78833  1.0000
  H   H3644     1.0  0.85275  0.07269  0.77225  1.0000
  H   H3645     1.0  0.83378  0.06727  0.72693  1.0000
  H   H3646     1.0  0.76749  0.16492  0.74779  1.0000
  C   C2053     1.0  0.75142  0.11117  0.82265  1.0000
  H   H3647     1.0  0.92996  0.12297  0.98621  1.0000
  C   C2054     1.0  0.82592  0.08238  0.51847  1.0000
  H   H3648     1.0  0.81241  0.17379  0.51735  1.0000
  C   C2055     1.0  0.79478  0.99346  0.54945  1.0000
  C   C2056     1.0  0.75439  0.01698  0.52348  1.0000
  H   H3649     1.0  0.81546  0.14191  0.81667  1.0000
  H   H3650     1.0  0.86137  0.31055  0.98544  1.0000
  H   H3651     1.0  0.77505  0.27829  0.53447  1.0000
  C   C2057     1.0  0.74461  0.07520  0.66517  1.0000
  C   C2058     1.0  0.73929  0.08827  0.66484  1.0000
  C   C2059     1.0  0.73294  0.09278  0.69308  1.0000
  C   C2060     1.0  0.73147  0.08388  0.72148  1.0000
  C   C2061     1.0  0.73672  0.07077  0.72179  1.0000
  C   C2062     1.0  0.74346  0.06656  0.69381  1.0000
  H   H3652     1.0  0.74014  0.09497  0.64267  1.0000
  H   H3653     1.0  0.72894  0.10292  0.69269  1.0000
  C   C2063     1.0  0.85478  0.09481  0.51573  1.0000
  H   H3654     1.0  0.74741  0.05638  0.69414  1.0000
  C   C2064     1.0  0.75069  0.98641  0.60749  1.0000
  C   C2065     1.0  0.76333  0.98622  0.62591  1.0000
  H   H3655     1.0  0.74998  0.99812  0.60187  1.0000
  C   C2066     1.0  0.82104  0.02538  0.54951  1.0000
  H   H3656     1.0  0.80563  0.99163  0.54072  1.0000
  C   C2067     1.0  0.73392  0.19543  0.77756  1.0000
  H   H3657     1.0  0.90095  0.19004  0.82193  1.0000
  C   C2068     1.0  0.78222  0.20314  0.73825  1.0000
  H   H3658     1.0  0.81065  0.29979  0.53213  1.0000
  H   H3659     1.0  0.92843  0.22676  0.90165  1.0000
  N   N113      1.0  0.80808  0.14001  0.50861  1.0000
  H   H3660     1.0  0.91315  0.23438  0.90484  1.0000
  C   C2069     1.0  0.83234  0.04355  0.55129  1.0000
  C   C2070     1.0  0.81483  0.16814  0.53936  1.0000
  S   S471      1.0  0.81619  0.23572  0.97875  1.0000
  C   C2071     1.0  0.80336  0.21191  0.69375  1.0000
  C   C2072     1.0  0.92397  0.18896  0.81736  1.0000
  H   H3661     1.0  0.77366  0.99879  0.97354  1.0000
  H   H3662     1.0  0.84106  0.08104  0.55643  1.0000
  C   C2073     1.0  0.91974  0.12670  0.98365  1.0000
  C   C2074     1.0  0.85674  0.18970  0.95986  1.0000
  Fe  Fe233     1.0  0.71871  0.11224  0.76138  1.0000
  Fe  Fe234     1.0  0.73002  0.14252  0.80669  1.0000
  H   H3663     1.0  0.74123  0.09925  0.81863  1.0000
  H   H3664     1.0  0.76340  0.09208  0.53822  1.0000
  H   H3665     1.0  0.93064  0.14222  0.94195  1.0000
  Fe  Fe235     1.0  0.82109  0.21694  0.51877  1.0000
  N   N114      1.0  0.77758  0.19746  0.77257  1.0000
  C   C2075     1.0  0.75970  0.19071  0.77567  1.0000
  C   C2076     1.0  0.78519  0.21196  0.79534  1.0000
  C   C2077     1.0  0.78315  0.18389  0.78112  1.0000
  H   H3666     1.0  0.78336  0.12049  0.66073  1.0000
  C   C2078     1.0  0.78018  0.20884  0.83154  1.0000
  C   C2079     1.0  0.75186  0.20350  0.77215  1.0000
  H   H3667     1.0  0.73111  0.18996  0.80208  1.0000
  C   C2080     1.0  0.78342  0.15539  0.76890  1.0000
  C   C2081     1.0  0.78879  0.22424  0.85232  1.0000
  H   H3668     1.0  0.75426  0.18090  0.75698  1.0000
  H   H3669     1.0  0.75570  0.18435  0.79926  1.0000
  H   H3670     1.0  0.78302  0.22299  0.78740  1.0000
  H   H3671     1.0  0.79832  0.21590  0.79446  1.0000
  H   H3672     1.0  0.79608  0.18899  0.78618  1.0000
  H   H3673     1.0  0.77741  0.17800  0.80423  1.0000
  H   H3674     1.0  0.80621  0.22235  0.74182  1.0000
  H   H3675     1.0  0.78312  0.19861  0.84102  1.0000
  H   H3676     1.0  0.76727  0.20562  0.83502  1.0000
  H   H3677     1.0  0.80170  0.05886  0.78247  1.0000
  H   H3678     1.0  0.77335  0.00725  0.56160  1.0000
  H   H3679     1.0  0.77919  0.03213  0.52588  1.0000
  H   H3680     1.0  0.79595  0.15964  0.77666  1.0000
  H   H3681     1.0  0.77542  0.14982  0.78987  1.0000
  H   H3682     1.0  0.78593  0.23482  0.84445  1.0000
  H   H3683     1.0  0.78497  0.22170  0.87806  1.0000
  H   H3684     1.0  0.80183  0.22767  0.85085  1.0000
  N   N115      1.0  0.85847  0.10925  0.63265  1.0000
  C   C2082     1.0  0.86282  0.12221  0.65939  1.0000
  C   C2083     1.0  0.84225  0.10692  0.62042  1.0000
  C   C2084     1.0  0.85707  0.09313  0.64773  1.0000
  C   C2085     1.0  0.87052  0.11331  0.60518  1.0000
  C   C2086     1.0  0.87952  0.13191  0.59711  1.0000
  C   C2087     1.0  0.87895  0.12573  0.67618  1.0000
  C   C2088     1.0  0.85298  0.07790  0.62449  1.0000
  C   C2089     1.0  0.84092  0.12160  0.60223  1.0000
  C   C2090     1.0  0.82370  0.11820  0.59433  1.0000
  C   C2091     1.0  0.88741  0.13395  0.56354  1.0000
  C   C2092     1.0  0.87683  0.11970  0.71116  1.0000
  C   C2093     1.0  0.85308  0.06282  0.64239  1.0000
  H   H3685     1.0  0.85314  0.11885  0.67819  1.0000
  H   H3686     1.0  0.86335  0.13427  0.65054  1.0000
  H   H3687     1.0  0.83782  0.09636  0.60309  1.0000
  H   H3688     1.0  0.83348  0.10371  0.64087  1.0000
  H   H3689     1.0  0.84800  0.08978  0.66767  1.0000
  H   H3690     1.0  0.86836  0.09444  0.65928  1.0000
  H   H3691     1.0  0.87991  0.10849  0.61006  1.0000
  H   H3692     1.0  0.86472  0.10664  0.58274  1.0000
  H   H3693     1.0  0.88898  0.13783  0.61506  1.0000
  H   H3694     1.0  0.87175  0.13897  0.59761  1.0000
  H   H3695     1.0  0.88648  0.12034  0.66261  1.0000
  H   H3696     1.0  0.88586  0.13934  0.67696  1.0000
  H   H3697     1.0  0.86164  0.08039  0.60402  1.0000
  H   H3698     1.0  0.84101  0.07436  0.61443  1.0000
  H   H3699     1.0  0.84539  0.13323  0.61677  1.0000
  H   H3700     1.0  0.84756  0.12343  0.57880  1.0000
  H   H3701     1.0  0.81868  0.10699  0.57852  1.0000
  H   H3702     1.0  0.81641  0.11645  0.61690  1.0000
  H   H3703     1.0  0.82318  0.12895  0.58146  1.0000
  H   H3704     1.0  0.89433  0.14729  0.55893  1.0000
  H   H3705     1.0  0.89560  0.12728  0.56180  1.0000
  H   H3706     1.0  0.87832  0.12910  0.54441  1.0000
  H   H3707     1.0  0.88859  0.12205  0.72174  1.0000
  H   H3708     1.0  0.87099  0.12652  0.72613  1.0000
  H   H3709     1.0  0.86955  0.10624  0.71244  1.0000
  H   H3710     1.0  0.86508  0.06524  0.65183  1.0000
  H   H3711     1.0  0.84438  0.05969  0.66291  1.0000
  H   H3712     1.0  0.84973  0.05198  0.62554  1.0000
  H   H3713     1.0  0.86708  0.08356  0.90158  1.0000
  Fe  Fe236     1.0  0.71914  0.14521  0.73838  1.0000
  H   H3714     1.0  0.85062  0.13302  0.50124  1.0000
  H   H3715     1.0  0.78124  0.05771  0.96482  1.0000
  H   H3716     1.0  0.91549  0.23743  0.84167  1.0000
  Fe  Fe237     1.0  0.79171  0.21564  0.98562  1.0000
  H   H3717     1.0  0.87598  0.21346  0.90199  1.0000
  H   H3718     1.0  0.76694  0.99401  0.52752  1.0000
  H   H3719     1.0  0.75190  0.01760  0.54983  1.0000
  H   H3720     1.0  0.77589  0.19305  0.72066  1.0000
  C   C2094     1.0  0.79722  0.29859  0.57583  1.0000
  H   H3721     1.0  0.80743  0.11806  0.53292  1.0000
  H   H3722     1.0  0.83101  0.14293  0.52665  1.0000
  C   C2095     1.0  0.85293  0.10457  0.99683  1.0000
  C   C2096     1.0  0.79809  0.29685  0.53897  1.0000
  C   C2097     1.0  0.93537  0.25505  0.86628  1.0000
  C   C2098     1.0  0.92491  0.23711  0.85775  1.0000
  H   H3723     1.0  0.91883  0.06223  0.95777  1.0000
  S   S472      1.0  0.84166  0.20892  0.51023  1.0000
  H   H3724     1.0  0.84136  0.28238  0.99708  1.0000
  H   H3725     1.0  0.88935  0.19082  0.91419  1.0000
  H   H3726     1.0  0.79296  0.14689  0.54222  1.0000
  C   C2099     1.0  0.80043  0.12164  0.51499  1.0000
  C   C2100     1.0  0.89181  0.20935  0.86470  1.0000
  H   H3727     1.0  0.79679  0.99723  0.57553  1.0000
  H   H3728     1.0  0.82180  0.01948  0.57266  1.0000
  S   S473      1.0  0.79568  0.19914  0.51938  1.0000
  H   H3729     1.0  0.83414  0.30368  0.60154  1.0000
  C   C2101     1.0  0.76468  0.99814  0.99279  1.0000
  H   H3730     1.0  0.75187  0.02690  0.51134  1.0000
  H   H3731     1.0  0.91587  0.08904  0.95426  1.0000
  H   H3732     1.0  0.91571  0.19040  0.92913  1.0000
  H   H3733     1.0  0.87638  0.09356  0.95686  1.0000
  H   H3734     1.0  0.74634  0.00480  0.51361  1.0000
  H   H3735     1.0  0.86303  0.19068  0.98219  1.0000
  C   C2102     1.0  0.95187  0.17185  0.84432  1.0000
  H   H3736     1.0  0.72865  0.20488  0.77554  1.0000
  C   C2103     1.0  0.84061  0.08583  0.53281  1.0000
  C   C2104     1.0  0.77173  0.01944  0.51740  1.0000
  H   H3737     1.0  0.90680  0.18550  0.87568  1.0000
  H   H3738     1.0  0.79711  0.17344  0.56863  1.0000
  H   H3739     1.0  0.82790  0.06465  0.98225  1.0000
  C   C2105     1.0  0.80998  0.17591  0.56907  1.0000
  H   H3740     1.0  0.82859  0.13366  0.79587  1.0000
  C   C2106     1.0  0.87295  0.07460  0.90375  1.0000
  H   H3741     1.0  0.86215  0.22548  0.86774  1.0000
  C   C2107     1.0  0.92582  0.14336  0.96644  1.0000
  H   H3742     1.0  0.88334  0.19628  0.86139  1.0000
  H   H3743     1.0  0.92087  0.09621  0.99439  1.0000
  H   H3744     1.0  0.79908  0.02613  0.56820  1.0000
  H   H3745     1.0  0.82552  0.01941  0.52992  1.0000
  H   H3746     1.0  0.91155  0.11273  0.93986  1.0000
  H   H3747     1.0  0.79856  0.05518  0.97974  1.0000
  N   N116      1.0  0.90583  0.20970  0.88393  1.0000
  C   C2108     1.0  0.88442  0.08671  0.95832  1.0000
  H   H3748     1.0  0.75121  0.11497  0.84845  1.0000
  C   C2109     1.0  0.91155  0.19983  0.93964  1.0000
  H   H3749     1.0  0.73550  0.06379  0.74370  1.0000
  H   H3750     1.0  0.89384  0.07311  0.92387  1.0000
  H   H3751     1.0  0.75709  0.25427  0.52220  1.0000
  H   H3752     1.0  0.92564  0.20202  0.87625  1.0000
  H   H3753     1.0  0.78265  0.09118  0.54230  1.0000
  H   H3754     1.0  0.87705  0.07472  0.96941  1.0000
  H   H3755     1.0  0.84446  0.04447  0.55715  1.0000
  H   H3756     1.0  0.80918  0.14417  0.56068  1.0000
  C   C2110     1.0  0.91068  0.08877  0.97902  1.0000
  H   H3757     1.0  0.91245  0.19105  0.98806  1.0000
  H   H3758     1.0  0.75004  0.12081  0.80743  1.0000
  C   C2111     1.0  0.86954  0.21933  0.85590  1.0000
  H   H3759     1.0  0.78967  0.27005  0.54207  1.0000
  C   C2112     1.0  0.91717  0.06325  0.98437  1.0000
  C   C2113     1.0  0.96024  0.18911  0.89216  1.0000
  H   H3760     1.0  0.76772  0.09951  0.83035  1.0000
  C   C2114     1.0  0.83384  0.07604  0.99570  1.0000
  H   H3761     1.0  0.80396  0.03384  0.52840  1.0000
  C   C2115     1.0  0.78307  0.11525  0.52799  1.0000
  H   H3762     1.0  0.79872  0.19961  0.68137  1.0000
  H   H3763     1.0  0.87622  0.26374  0.97161  1.0000
  H   H3764     1.0  0.95754  0.19313  0.91569  1.0000
  C   C2116     1.0  0.78716  0.27930  0.52731  1.0000
  H   H3765     1.0  0.91611  0.14795  0.96390  1.0000
  H   H3766     1.0  0.89361  0.06269  0.98079  1.0000
  H   H3767     1.0  0.91706  0.20973  0.81891  1.0000
  C   C2117     1.0  0.77645  0.03368  0.98596  1.0000
  H   H3768     1.0  0.78275  0.11939  0.55355  1.0000
  C   C2118     1.0  0.80574  0.14906  0.53869  1.0000
  H   H3769     1.0  0.84692  0.08926  0.95376  1.0000
  H   H3770     1.0  0.87586  0.07137  0.87891  1.0000
  H   H3771     1.0  0.77831  0.21332  0.73246  1.0000
  C   C2119     1.0  0.77558  0.09632  0.52763  1.0000
  H   H3772     1.0  0.75392  0.20875  0.74746  1.0000
  H   H3773     1.0  0.75648  0.21380  0.79003  1.0000
  H   H3774     1.0  0.79419  0.30625  0.52863  1.0000
  H   H3775     1.0  0.79759  0.21980  0.68347  1.0000
  H   H3776     1.0  0.79818  0.07004  0.81692  1.0000
  H   H3777     1.0  0.78133  0.14573  0.74973  1.0000
  N   N117      1.0  0.78228  0.10113  0.76774  1.0000
  C   C2120     1.0  0.78067  0.08505  0.78318  1.0000
  C   C2121     1.0  0.76824  0.10525  0.77822  1.0000
  C   C2122     1.0  0.78140  0.09825  0.73145  1.0000
  C   C2123     1.0  0.79779  0.11527  0.77544  1.0000
  C   C2124     1.0  0.80531  0.11510  0.80881  1.0000
  C   C2125     1.0  0.79243  0.07734  0.77025  1.0000
  C   C2126     1.0  0.78073  0.11258  0.71078  1.0000
  C   C2127     1.0  0.76708  0.10932  0.81464  1.0000
  C   C2128     1.0  0.81939  0.13136  0.81526  1.0000
  C   C2129     1.0  0.79348  0.06431  0.79310  1.0000
  C   C2130     1.0  0.78481  0.11063  0.67521  1.0000
  H   H3778     1.0  0.76849  0.07552  0.77939  1.0000
  H   H3779     1.0  0.78184  0.08645  0.80984  1.0000
  H   H3780     1.0  0.76824  0.11627  0.76539  1.0000
  H   H3781     1.0  0.75699  0.09491  0.77130  1.0000
  H   H3782     1.0  0.77088  0.08693  0.72516  1.0000
  H   H3783     1.0  0.79186  0.09576  0.72241  1.0000
  H   H3784     1.0  0.80710  0.11586  0.75702  1.0000
  H   H3785     1.0  0.79640  0.12732  0.77352  1.0000
  H   H3786     1.0  0.80985  0.10502  0.80945  1.0000
  H   H3787     1.0  0.79675  0.11318  0.82917  1.0000
  H   H3788     1.0  0.78847  0.07118  0.74635  1.0000
  H   H3789     1.0  0.80447  0.08695  0.76696  1.0000
  H   H3790     1.0  0.78919  0.12478  0.71954  1.0000
  H   H3791     1.0  0.76855  0.11258  0.71177  1.0000
  C   C2131     1.0  0.86882  0.25946  0.99384  1.0000
  H   H3792     1.0  0.77674  0.12132  0.82090  1.0000
  H   H3793     1.0  0.77681  0.09844  0.66540  1.0000
  H   H3794     1.0  0.82485  0.13072  0.83873  1.0000
  H   H3795     1.0  0.89720  0.11882  0.95987  1.0000
  S   S474      1.0  0.84724  0.21327  0.98683  1.0000
  C   C2132     1.0  0.80027  0.20996  0.73026  1.0000
  H   H3796     1.0  0.81669  0.18954  0.56913  1.0000
  H   H3797     1.0  0.78759  0.17429  0.73366  1.0000
  C   C2133     1.0  0.88222  0.21921  0.87931  1.0000
  H   H3798     1.0  0.86456  0.06317  0.91541  1.0000
  C   C2134     1.0  0.84464  0.08998  0.97946  1.0000
  H   H3799     1.0  0.82834  0.05030  0.57026  1.0000
  C   C2135     1.0  0.78578  0.05239  0.98456  1.0000
  H   H3800     1.0  0.93543  0.15268  0.98067  1.0000
  C   C2136     1.0  0.91800  0.22704  0.88870  1.0000
  N   N118      1.0  0.89852  0.09653  0.97890  1.0000
  H   H3801     1.0  0.85635  0.25738  0.98816  1.0000
  H   H3802     1.0  0.77483  0.09138  0.50244  1.0000
  H   H3803     1.0  0.94530  0.25554  0.88192  1.0000
  H   H3804     1.0  0.92204  0.21136  0.94413  1.0000
  H   H3805     1.0  0.84136  0.28756  0.50582  1.0000
  C   C2137     1.0  0.94804  0.17687  0.87471  1.0000
  H   H3806     1.0  0.86610  0.09698  0.52651  1.0000
  H   H3807     1.0  0.91998  0.17616  0.82669  1.0000
  H   H3808     1.0  0.83287  0.04956  0.52761  1.0000
  C   C2138     1.0  0.82572  0.14480  0.50373  1.0000
  H   H3809     1.0  0.75676  0.00345  0.98178  1.0000
  H   H3810     1.0  0.80092  0.28944  0.58787  1.0000
  C   C2139     1.0  0.77582  0.00619  0.53524  1.0000
  H   H3811     1.0  0.89001  0.23227  0.88457  1.0000
  H   H3812     1.0  0.93257  0.23179  0.84442  1.0000
  H   H3813     1.0  0.92829  0.26129  0.87901  1.0000
  H   H3814     1.0  0.81263  0.17095  0.59175  1.0000
  H   H3815     1.0  0.89539  0.21392  0.83979  1.0000
  H   H3816     1.0  0.76378  0.03152  0.98941  1.0000
  C   C2140     1.0  0.83968  0.30639  0.57777  1.0000
  C   C2141     1.0  0.80360  0.02354  0.54422  1.0000
  H   H3817     1.0  0.94049  0.26191  0.84373  1.0000
  H   H3818     1.0  0.72853  0.18565  0.75889  1.0000
  C   C2142     1.0  0.91317  0.19747  0.83030  1.0000
  H   H3819     1.0  0.87510  0.22618  0.83361  1.0000
  H   H3820     1.0  0.93643  0.19602  0.82468  1.0000
  H   H3821     1.0  0.89321  0.18198  0.96990  1.0000
  C   C2143     1.0  0.90386  0.19361  0.97264  1.0000
  H   H3822     1.0  0.77781  0.02827  0.96200  1.0000
  N   N119      1.0  0.79255  0.00703  0.53054  1.0000
  H   H3823     1.0  0.77571  0.12000  0.51338  1.0000
  C   C2144     1.0  0.90494  0.07090  0.99178  1.0000
  H   H3824     1.0  0.92875  0.07086  0.99537  1.0000
  H   H3825     1.0  0.91298  0.05062  0.99462  1.0000
  H   H3826     1.0  0.80718  0.26747  0.50150  1.0000
  H   H3827     1.0  0.80538  0.31118  0.58352  1.0000
  C   C2145     1.0  0.75439  0.97954  0.99856  1.0000
  H   H3828     1.0  0.87320  0.58818  0.10984  1.0000
  S   S475      1.0  0.74591  0.58030  0.09036  1.0000
  C   C2146     1.0  0.85590  0.33329  0.41651  1.0000
  H   H3829     1.0  0.94702  0.41234  0.08134  1.0000
  H   H3830     1.0  0.90342  0.32586  0.07973  1.0000
  H   H3831     1.0  0.94808  0.46008  0.28754  1.0000
  H   H3832     1.0  0.75598  0.54951  0.25354  1.0000
  Fe  Fe238     1.0  0.81960  0.55230  0.26806  1.0000
  S   S476      1.0  0.82341  0.57605  0.29557  1.0000
  S   S477      1.0  0.82585  0.53134  0.28816  1.0000
  Fe  Fe239     1.0  0.80247  0.56162  0.21294  1.0000
  S   S478      1.0  0.80548  0.58604  0.23597  1.0000
  S   S479      1.0  0.79042  0.55180  0.16472  1.0000
  Fe  Fe240     1.0  0.83007  0.58825  0.24704  1.0000
  S   S480      1.0  0.85148  0.61248  0.24511  1.0000
  Fe  Fe241     1.0  0.79837  0.57204  0.28285  1.0000
  S   S481      1.0  0.78207  0.58050  0.31481  1.0000
  S   S482      1.0  0.82793  0.56479  0.22026  1.0000
  S   S483      1.0  0.79378  0.54732  0.25900  1.0000
  Fe  Fe242     1.0  0.89308  0.46786  0.34729  1.0000
  S   S484      1.0  0.91325  0.46387  0.32150  1.0000
  S   S485      1.0  0.87822  0.45039  0.38626  1.0000
  Fe  Fe243     1.0  0.89718  0.49892  0.30928  1.0000
  S   S486      1.0  0.91841  0.49746  0.28270  1.0000
  S   S487      1.0  0.89122  0.52013  0.28933  1.0000
  Fe  Fe244     1.0  0.90400  0.47038  0.27614  1.0000
  S   S488      1.0  0.90808  0.46365  0.22418  1.0000
  Fe  Fe245     1.0  0.92624  0.49123  0.32972  1.0000
  S   S489      1.0  0.95207  0.49706  0.34098  1.0000
  S   S490      1.0  0.88240  0.47193  0.30086  1.0000
  S   S491      1.0  0.90648  0.49510  0.35775  1.0000
  Fe  Fe246     1.0  0.88444  0.39190  0.10210  1.0000
  S   S492      1.0  0.88907  0.36848  0.10615  1.0000
  S   S493      1.0  0.87057  0.39833  0.14285  1.0000
  H   H3833     1.0  0.82325  0.61125  0.29372  1.0000
  H   H3834     1.0  0.95923  0.48114  0.27596  1.0000
  H   H3835     1.0  0.83762  0.63323  0.14527  1.0000
  Fe  Fe247     1.0  0.88412  0.36489  0.05268  1.0000
  S   S494      1.0  0.87269  0.34126  0.02137  1.0000
  Fe  Fe248     1.0  0.91414  0.38481  0.09235  1.0000
  S   S495      1.0  0.93435  0.38311  0.12115  1.0000
  S   S496      1.0  0.87747  0.38722  0.04952  1.0000
  S   S497      1.0  0.90972  0.40826  0.09127  1.0000
  Fe  Fe249     1.0  0.90331  0.40178  0.03895  1.0000
  C   C2147     1.0  0.84534  0.59193  0.13044  1.0000
  C   C2148     1.0  0.84567  0.63594  0.16538  1.0000
  H   H3836     1.0  0.76555  0.57092  0.45426  1.0000
  H   H3837     1.0  0.95766  0.46395  0.48646  1.0000
  H   H3838     1.0  0.88518  0.32939  0.07811  1.0000
  C   C2149     1.0  0.75553  0.53374  0.21303  1.0000
  C   C2150     1.0  0.89644  0.44577  0.20205  1.0000
  C   C2151     1.0  0.88468  0.43218  0.21671  1.0000
  C   C2152     1.0  0.87656  0.41775  0.19823  1.0000
  C   C2153     1.0  0.88036  0.41678  0.16524  1.0000
  C   C2154     1.0  0.89179  0.43058  0.15052  1.0000
  C   C2155     1.0  0.89968  0.44505  0.16880  1.0000
  H   H3839     1.0  0.88205  0.43264  0.24230  1.0000
  H   H3840     1.0  0.86760  0.40715  0.20966  1.0000
  H   H3841     1.0  0.89451  0.43010  0.12498  1.0000
  H   H3842     1.0  0.90849  0.45567  0.15716  1.0000
  C   C2156     1.0  0.88787  0.44384  0.41657  1.0000
  C   C2157     1.0  0.87923  0.43553  0.44393  1.0000
  C   C2158     1.0  0.88653  0.42961  0.46770  1.0000
  C   C2159     1.0  0.90246  0.43170  0.46389  1.0000
  C   C2160     1.0  0.91107  0.44012  0.43671  1.0000
  C   C2161     1.0  0.90386  0.44622  0.41325  1.0000
  H   H3843     1.0  0.86686  0.43371  0.44674  1.0000
  C   C2162     1.0  0.85803  0.32139  0.03097  1.0000
  H   H3844     1.0  0.92340  0.44188  0.43363  1.0000
  H   H3845     1.0  0.91065  0.45262  0.39240  1.0000
  C   C2163     1.0  0.84673  0.38168  0.49157  1.0000
  H   H3846     1.0  0.79583  0.60262  0.45125  1.0000
  H   H3847     1.0  0.76394  0.59569  0.26771  1.0000
  H   H3848     1.0  0.74815  0.59566  0.22110  1.0000
  C   C2164     1.0  0.84431  0.52881  0.28885  1.0000
  C   C2165     1.0  0.85772  0.53911  0.27160  1.0000
  C   C2166     1.0  0.87195  0.53630  0.27214  1.0000
  C   C2167     1.0  0.87300  0.52320  0.28991  1.0000
  C   C2168     1.0  0.85962  0.51294  0.30722  1.0000
  C   C2169     1.0  0.84536  0.51568  0.30654  1.0000
  H   H3849     1.0  0.85706  0.54918  0.25778  1.0000
  H   H3850     1.0  0.88224  0.54437  0.25876  1.0000
  H   H3851     1.0  0.86027  0.50294  0.32130  1.0000
  H   H3852     1.0  0.83508  0.50763  0.31997  1.0000
  C   C2170     1.0  0.75863  0.57227  0.10948  1.0000
  C   C2171     1.0  0.75918  0.55694  0.10087  1.0000
  C   C2172     1.0  0.76904  0.55089  0.11787  1.0000
  C   C2173     1.0  0.77835  0.56001  0.14373  1.0000
  C   C2174     1.0  0.77790  0.57539  0.15210  1.0000
  C   C2175     1.0  0.76815  0.58150  0.13495  1.0000
  H   H3853     1.0  0.75194  0.54971  0.08131  1.0000
  H   H3854     1.0  0.76936  0.53900  0.11111  1.0000
  H   H3855     1.0  0.78516  0.58261  0.17161  1.0000
  H   H3856     1.0  0.76798  0.59348  0.14140  1.0000
  C   C2176     1.0  0.74862  0.55390  0.39903  1.0000
  C   C2177     1.0  0.75134  0.57031  0.39172  1.0000
  C   C2178     1.0  0.76171  0.57826  0.36604  1.0000
  C   C2179     1.0  0.76961  0.56999  0.34758  1.0000
  C   C2180     1.0  0.76707  0.55363  0.35513  1.0000
  C   C2181     1.0  0.75655  0.54561  0.38063  1.0000
  H   H3857     1.0  0.74533  0.57685  0.40566  1.0000
  H   H3858     1.0  0.76359  0.59091  0.36042  1.0000
  H   H3859     1.0  0.77303  0.54709  0.34105  1.0000
  H   H3860     1.0  0.75450  0.53290  0.38606  1.0000
  H   H3861     1.0  0.93895  0.47094  0.26344  1.0000
  C   C2182     1.0  0.75277  0.62230  0.44344  1.0000
  C   C2183     1.0  0.74063  0.62747  0.45335  1.0000
  C   C2184     1.0  0.95485  0.53574  0.27570  1.0000
  C   C2185     1.0  0.88369  0.58805  0.24178  1.0000
  H   H3862     1.0  0.75144  0.60964  0.44693  1.0000
  C   C2186     1.0  0.95590  0.46316  0.23680  1.0000
  C   C2187     1.0  0.85358  0.62741  0.21545  1.0000
  C   C2188     1.0  0.84281  0.62434  0.19023  1.0000
  H   H3863     1.0  0.82307  0.62895  0.24848  1.0000
  H   H3864     1.0  0.74451  0.52367  0.22172  1.0000
  H   H3865     1.0  0.83252  0.61285  0.18939  1.0000
  S   S498      1.0  0.90979  0.37944  0.03932  1.0000
  C   C2189     1.0  0.85459  0.38410  0.45801  1.0000
  H   H3866     1.0  0.85186  0.32810  0.07826  1.0000
  H   H3867     1.0  0.90344  0.59752  0.15029  1.0000
  H   H3868     1.0  0.95729  0.50733  0.25710  1.0000
  H   H3869     1.0  0.87980  0.42332  0.48873  1.0000
  H   H3870     1.0  0.87937  0.39560  0.47050  1.0000
  H   H3871     1.0  0.95095  0.44398  0.42390  1.0000
  C   C2190     1.0  0.81934  0.62167  0.29817  1.0000
  H   H3872     1.0  0.91407  0.39163  0.16825  1.0000
  C   C2191     1.0  0.87620  0.58474  0.20828  1.0000
  H   H3873     1.0  0.94094  0.48843  0.21123  1.0000
  C   C2192     1.0  0.75299  0.58572  0.22092  1.0000
  H   H3874     1.0  0.95764  0.47251  0.21792  1.0000
  C   C2193     1.0  0.95616  0.41248  0.09772  1.0000
  H   H3875     1.0  0.79884  0.51657  0.43357  1.0000
  C   C2194     1.0  0.72477  0.55122  0.27770  1.0000
  H   H3876     1.0  0.88181  0.38365  0.35802  1.0000
  C   C2195     1.0  0.95307  0.39965  0.11964  1.0000
  C   C2196     1.0  0.88084  0.40730  0.34802  1.0000
  H   H3877     1.0  0.71562  0.53846  0.32291  1.0000
  C   C2197     1.0  0.88003  0.60118  0.19000  1.0000
  H   H3878     1.0  0.78476  0.60562  0.20603  1.0000
  H   H3879     1.0  0.90207  0.39769  0.43918  1.0000
  H   H3880     1.0  0.87589  0.61600  0.11600  1.0000
  H   H3881     1.0  0.79040  0.61277  0.24684  1.0000
  H   H3882     1.0  0.94980  0.52538  0.29316  1.0000
  H   H3883     1.0  0.77778  0.59823  0.42938  1.0000
  H   H3884     1.0  0.89607  0.36046  0.43921  1.0000
  H   H3885     1.0  0.86465  0.39255  0.39954  1.0000
  H   H3886     1.0  0.73210  0.54363  0.21300  1.0000
  H   H3887     1.0  0.79736  0.55833  0.44937  1.0000
  H   H3888     1.0  0.77278  0.58314  0.24669  1.0000
  H   H3889     1.0  0.87591  0.60933  0.20560  1.0000
  H   H3890     1.0  0.89453  0.57973  0.08421  1.0000
  C   C2198     1.0  0.79185  0.31550  0.44526  1.0000
  C   C2199     1.0  0.84962  0.31822  0.06048  1.0000
  H   H3891     1.0  0.95719  0.44648  0.12513  1.0000
  H   H3892     1.0  0.76884  0.64508  0.02063  1.0000
  C   C2200     1.0  0.76659  0.63347  0.42845  1.0000
  H   H3893     1.0  0.71480  0.55699  0.22003  1.0000
  C   C2201     1.0  0.91042  0.39757  0.18924  1.0000
  H   H3894     1.0  0.92028  0.37029  0.47224  1.0000
  H   H3895     1.0  0.87884  0.59579  0.25676  1.0000
  H   H3896     1.0  0.74917  0.56814  0.27692  1.0000
  H   H3897     1.0  0.75752  0.58537  0.19587  1.0000
  C   C2202     1.0  0.82768  0.58177  0.13636  1.0000
  H   H3898     1.0  0.80992  0.63922  0.02083  1.0000
  H   H3899     1.0  0.84659  0.60481  0.12561  1.0000
  H   H3900     1.0  0.79383  0.60873  0.02417  1.0000
  S   S499      1.0  0.91212  0.42363  0.49149  1.0000
  C   C2203     1.0  0.86678  0.64246  0.21650  1.0000
  H   H3901     1.0  0.80457  0.53840  0.47561  1.0000
  N   N120      1.0  0.74004  0.56919  0.22914  1.0000
  C   C2204     1.0  0.78314  0.61059  0.01596  1.0000
  H   H3902     1.0  0.85179  0.57792  0.16563  1.0000
  H   H3903     1.0  0.88450  0.41993  0.35892  1.0000
  C   C2205     1.0  0.77859  0.57717  0.45495  1.0000
  H   H3904     1.0  0.79356  0.64099  0.04192  1.0000
  H   H3905     1.0  0.87063  0.34936  0.45285  1.0000
  C   C2206     1.0  0.89255  0.32502  0.09352  1.0000
  H   H3906     1.0  0.94418  0.46580  0.11020  1.0000
  H   H3907     1.0  0.84898  0.58687  0.10825  1.0000
  H   H3908     1.0  0.76829  0.55989  0.21953  1.0000
  S   S500      1.0  0.91476  0.42084  0.99974  1.0000
  H   H3909     1.0  0.91268  0.39241  0.21205  1.0000
  C   C2207     1.0  0.85527  0.59127  0.16014  1.0000
  H   H3910     1.0  0.86829  0.62196  0.15185  1.0000
  N   N121      1.0  0.94733  0.43955  0.19330  1.0000
  C   C2208     1.0  0.93753  0.42121  0.19067  1.0000
  H   H3911     1.0  0.90124  0.38411  0.40589  1.0000
  C   C2209     1.0  0.94395  0.44582  0.22590  1.0000
  C   C2210     1.0  0.94312  0.44899  0.16735  1.0000
  C   C2211     1.0  0.94458  0.44341  0.13190  1.0000
  C   C2212     1.0  0.91934  0.41634  0.18864  1.0000
  C   C2213     1.0  0.95742  0.45125  0.48975  1.0000
  H   H3912     1.0  0.90077  0.60669  0.11303  1.0000
  H   H3913     1.0  0.89619  0.33340  0.11504  1.0000
  C   C2214     1.0  0.93795  0.45215  0.10808  1.0000
  H   H3914     1.0  0.77762  0.60050  0.47275  1.0000
  C   C2215     1.0  0.95014  0.46913  0.26778  1.0000
  H   H3915     1.0  0.93364  0.55076  0.29516  1.0000
  H   H3916     1.0  0.89843  0.40155  0.37217  1.0000
  H   H3917     1.0  0.85528  0.39628  0.44920  1.0000
  H   H3918     1.0  0.93838  0.54103  0.32918  1.0000
  H   H3919     1.0  0.94328  0.43698  0.24542  1.0000
  H   H3920     1.0  0.93197  0.44642  0.22619  1.0000
  H   H3921     1.0  0.93089  0.44850  0.17142  1.0000
  H   H3922     1.0  0.87732  0.36145  0.39362  1.0000
  H   H3923     1.0  0.93806  0.42992  0.12838  1.0000
  H   H3924     1.0  0.94137  0.41557  0.16937  1.0000
  H   H3925     1.0  0.91481  0.42174  0.20916  1.0000
  H   H3926     1.0  0.91632  0.42069  0.16570  1.0000
  H   H3927     1.0  0.80619  0.61673  0.29719  1.0000
  H   H3928     1.0  0.85912  0.31651  0.49264  1.0000
  H   H3929     1.0  0.85189  0.35089  0.44852  1.0000
  C   C2216     1.0  0.74315  0.55504  0.21304  1.0000
  C   C2217     1.0  0.89975  0.37280  0.45125  1.0000
  H   H3930     1.0  0.92402  0.37966  0.43282  1.0000
  H   H3931     1.0  0.88257  0.40710  0.41572  1.0000
  H   H3932     1.0  0.80206  0.32660  0.43694  1.0000
  H   H3933     1.0  0.92505  0.44872  0.11261  1.0000
  H   H3934     1.0  0.89391  0.37141  0.47537  1.0000
  H   H3935     1.0  0.86325  0.57816  0.21218  1.0000
  H   H3936     1.0  0.89679  0.59443  0.23973  1.0000
  H   H3937     1.0  0.82315  0.62680  0.32281  1.0000
  H   H3938     1.0  0.92210  0.39142  0.46816  1.0000
  H   H3939     1.0  0.91375  0.58714  0.10272  1.0000
  C   C2218     1.0  0.78030  0.60817  0.22994  1.0000
  H   H3940     1.0  0.72676  0.56225  0.16440  1.0000
  H   H3941     1.0  0.93961  0.41470  0.21187  1.0000
  H   H3942     1.0  0.82074  0.58266  0.11525  1.0000
  H   H3943     1.0  0.89747  0.39452  0.18759  1.0000
  C   C2219     1.0  0.75657  0.55051  0.22682  1.0000
  H   H3944     1.0  0.85093  0.59662  0.18118  1.0000
  H   H3945     1.0  0.72126  0.57857  0.22876  1.0000
  H   H3946     1.0  0.89312  0.60745  0.18940  1.0000
  H   H3947     1.0  0.94506  0.41791  0.49479  1.0000
  C   C2220     1.0  0.89670  0.59521  0.12750  1.0000
  H   H3948     1.0  0.72593  0.54011  0.26643  1.0000
  H   H3949     1.0  0.87432  0.57622  0.14277  1.0000
  H   H3950     1.0  0.87130  0.37417  0.47603  1.0000
  H   H3951     1.0  0.78267  0.52132  0.41881  1.0000
  C   C2221     1.0  0.96202  0.52917  0.36563  1.0000
  H   H3952     1.0  0.84678  0.37434  0.44152  1.0000
  H   H3953     1.0  0.77553  0.61800  0.22732  1.0000
  H   H3954     1.0  0.95080  0.46237  0.16887  1.0000
  H   H3955     1.0  0.76580  0.53103  0.22095  1.0000
  C   C2222     1.0  0.87704  0.61679  0.14286  1.0000
  C   C2223     1.0  0.90077  0.58235  0.10774  1.0000
  H   H3956     1.0  0.82324  0.58640  0.15818  1.0000
  H   H3957     1.0  0.73432  0.58422  0.17186  1.0000
  H   H3958     1.0  0.73686  0.54882  0.32113  1.0000
  H   H3959     1.0  0.88092  0.57614  0.25437  1.0000
  C   C2224     1.0  0.91765  0.37897  0.45632  1.0000
  C   C2225     1.0  0.78276  0.59579  0.45210  1.0000
  H   H3960     1.0  0.89293  0.63467  0.17718  1.0000
  H   H3961     1.0  0.82552  0.56850  0.13974  1.0000
  H   H3962     1.0  0.86581  0.33119  0.40367  1.0000
  H   H3963     1.0  0.89739  0.57064  0.12139  1.0000
  N   N122      1.0  0.87312  0.59973  0.15662  1.0000
  H   H3964     1.0  0.84682  0.33294  0.39874  1.0000
  H   H3965     1.0  0.77588  0.62933  0.42074  1.0000
  H   H3966     1.0  0.80286  0.53631  0.41517  1.0000
  Fe  Fe250     1.0  0.72694  0.55702  0.46991  1.0000
  Fe  Fe251     1.0  0.73117  0.57211  0.04427  1.0000
  H   H3967     1.0  0.86785  0.40227  0.34397  1.0000
  H   H3968     1.0  0.77735  0.54470  0.44303  1.0000
  S   S501      1.0  0.73543  0.54335  0.43083  1.0000
  H   H3969     1.0  0.88699  0.40832  0.32416  1.0000
  H   H3970     1.0  0.88087  0.57645  0.19474  1.0000
  H   H3971     1.0  0.93957  0.44821  0.08292  1.0000
  H   H3972     1.0  0.94997  0.52825  0.36310  1.0000
  C   C2226     1.0  0.79436  0.52661  0.43086  1.0000
  Fe  Fe252     1.0  0.72243  0.58868  0.48777  1.0000
  C   C2227     1.0  0.79896  0.64168  0.01723  1.0000
  C   C2228     1.0  0.76751  0.59242  0.24345  1.0000
  C   C2229     1.0  0.87863  0.58918  0.13401  1.0000
  H   H3973     1.0  0.85938  0.36469  0.39643  1.0000
  C   C2230     1.0  0.72471  0.56911  0.21577  1.0000
  N   N123      1.0  0.85584  0.48122  0.20987  1.0000
  C   C2231     1.0  0.85397  0.46544  0.19163  1.0000
  C   C2232     1.0  0.85361  0.47742  0.24553  1.0000
  C   C2233     1.0  0.84370  0.48750  0.19806  1.0000
  C   C2234     1.0  0.87214  0.49448  0.20462  1.0000
  C   C2235     1.0  0.88629  0.48921  0.21001  1.0000
  C   C2236     1.0  0.85766  0.46714  0.15470  1.0000
  C   C2237     1.0  0.84302  0.50289  0.21654  1.0000
  C   C2238     1.0  0.83656  0.46634  0.25692  1.0000
  C   C2239     1.0  0.83602  0.46322  0.29331  1.0000
  C   C2240     1.0  0.90208  0.50360  0.20386  1.0000
  C   C2241     1.0  0.85746  0.45085  0.14002  1.0000
  C   C2242     1.0  0.82962  0.50751  0.20425  1.0000
  H   H3974     1.0  0.84159  0.45622  0.19411  1.0000
  H   H3975     1.0  0.86141  0.45938  0.20252  1.0000
  H   H3976     1.0  0.86134  0.47094  0.25262  1.0000
  H   H3977     1.0  0.85763  0.48900  0.26043  1.0000
  H   H3978     1.0  0.83163  0.47749  0.19849  1.0000
  H   H3979     1.0  0.84606  0.49106  0.17218  1.0000
  H   H3980     1.0  0.87336  0.49966  0.17987  1.0000
  H   H3981     1.0  0.87396  0.50520  0.22139  1.0000
  H   H3982     1.0  0.88592  0.47892  0.19348  1.0000
  H   H3983     1.0  0.88626  0.48520  0.23526  1.0000
  H   H3984     1.0  0.84861  0.47034  0.14216  1.0000
  H   H3985     1.0  0.86950  0.47681  0.14933  1.0000
  H   H3986     1.0  0.85428  0.51379  0.21319  1.0000
  H   H3987     1.0  0.84095  0.50062  0.24284  1.0000
  H   H3988     1.0  0.82803  0.47225  0.25237  1.0000
  H   H3989     1.0  0.83240  0.45412  0.24435  1.0000
  H   H3990     1.0  0.82375  0.45522  0.30089  1.0000
  H   H3991     1.0  0.84405  0.45689  0.29938  1.0000
  H   H3992     1.0  0.83955  0.47509  0.30719  1.0000
  H   H3993     1.0  0.90360  0.51392  0.22133  1.0000
  H   H3994     1.0  0.91187  0.49926  0.20716  1.0000
  H   H3995     1.0  0.90280  0.50810  0.17871  1.0000
  H   H3996     1.0  0.86672  0.44738  0.15111  1.0000
  H   H3997     1.0  0.84569  0.44070  0.14384  1.0000
  H   H3998     1.0  0.85995  0.45223  0.11355  1.0000
  H   H3999     1.0  0.81794  0.49727  0.20848  1.0000
  H   H4000     1.0  0.82960  0.51867  0.21764  1.0000
  H   H4001     1.0  0.83125  0.51035  0.17801  1.0000
  N   N124      1.0  0.87829  0.38155  0.42614  1.0000
  C   C2243     1.0  0.87150  0.38380  0.45878  1.0000
  C   C2244     1.0  0.89566  0.38482  0.42975  1.0000
  C   C2245     1.0  0.87726  0.39465  0.40397  1.0000
  C   C2246     1.0  0.86943  0.36462  0.41117  1.0000
  C   C2247     1.0  0.86208  0.34988  0.43481  1.0000
  C   C2248     1.0  0.79272  0.53384  0.46417  1.0000
  C   C2249     1.0  0.88531  0.39599  0.37005  1.0000
  H   H4002     1.0  0.74627  0.55761  0.18695  1.0000
  S   S502      1.0  0.71582  0.54699  0.02416  1.0000
  H   H4003     1.0  0.84067  0.37137  0.01611  1.0000
  H   H4004     1.0  0.77556  0.61072  0.03736  1.0000
  H   H4005     1.0  0.79800  0.58063  0.48721  1.0000
  H   H4006     1.0  0.75569  0.53376  0.18611  1.0000
  C   C2250     1.0  0.72553  0.54977  0.31443  1.0000
  S   S503      1.0  0.74349  0.58166  0.48875  1.0000
  H   H4007     1.0  0.83431  0.38075  0.48956  1.0000
  C   C2251     1.0  0.74242  0.64391  0.44796  1.0000
  C   C2252     1.0  0.73802  0.56738  0.26546  1.0000
  H   H4008     1.0  0.94579  0.56327  0.32725  1.0000
  H   H4009     1.0  0.90025  0.55605  0.00052  1.0000
  C   C2253     1.0  0.78707  0.54838  0.46109  1.0000
  H   H4010     1.0  0.96147  0.56264  0.27780  1.0000
  C   C2254     1.0  0.82679  0.63491  0.27256  1.0000
  H   H4011     1.0  0.71288  0.55110  0.27222  1.0000
  H   H4012     1.0  0.75755  0.54681  0.47748  1.0000
  H   H4013     1.0  0.78354  0.57325  0.43300  1.0000
  C   C2255     1.0  0.94966  0.51535  0.21344  1.0000
  C   C2256     1.0  0.89333  0.63053  0.15162  1.0000
  C   C2257     1.0  0.78502  0.57302  0.48681  1.0000
  H   H4014     1.0  0.73558  0.57799  0.27618  1.0000
  H   H4015     1.0  0.80837  0.64435  0.27370  1.0000
  H   H4016     1.0  0.78458  0.52364  0.47908  1.0000
  C   C2258     1.0  0.72486  0.57224  0.17872  1.0000
  C   C2259     1.0  0.94580  0.49907  0.19456  1.0000
  C   C2260     1.0  0.96240  0.51761  0.23944  1.0000
  S   S504      1.0  0.72326  0.61381  0.47291  1.0000
  H   H4017     1.0  0.83982  0.63890  0.27413  1.0000
  H   H4018     1.0  0.94495  0.44293  0.48475  1.0000
  H   H4019     1.0  0.94511  0.53470  0.25913  1.0000
  C   C2261     1.0  0.94306  0.55172  0.31262  1.0000
  H   H4020     1.0  0.95373  0.52559  0.19580  1.0000
  H   H4021     1.0  0.75959  0.52042  0.48274  1.0000
  H   H4022     1.0  0.95653  0.49873  0.18188  1.0000
  H   H4023     1.0  0.85038  0.32310  0.43399  1.0000
  H   H4024     1.0  0.90326  0.62630  0.14924  1.0000
  H   H4025     1.0  0.78491  0.31955  0.46351  1.0000
  H   H4026     1.0  0.93839  0.51486  0.22477  1.0000
  H   H4027     1.0  0.93665  0.49772  0.17621  1.0000
  C   C2262     1.0  0.95806  0.55212  0.29470  1.0000
  H   H4028     1.0  0.72458  0.56070  0.32713  1.0000
  N   N125      1.0  0.78199  0.55494  0.49181  1.0000
  H   H4029     1.0  0.77633  0.59992  0.00009  1.0000
  H   H4030     1.0  0.89867  0.64241  0.10446  1.0000
  H   H4031     1.0  0.73378  0.52158  0.49771  1.0000
  C   C2263     1.0  0.76448  0.54590  0.49848  1.0000
  C   C2264     1.0  0.89724  0.64565  0.13017  1.0000
  H   H4032     1.0  0.87513  0.64493  0.23602  1.0000
  Fe  Fe253     1.0  0.73513  0.57173  0.53847  1.0000
  S   S505      1.0  0.75499  0.58190  0.57567  1.0000
  H   H4033     1.0  0.87237  0.57081  0.84934  1.0000
  C   C2265     1.0  0.79477  0.61161  0.54184  1.0000
  Fe  Fe254     1.0  0.72464  0.55822  0.97507  1.0000
  S   S506      1.0  0.72984  0.54385  0.93272  1.0000
  C   C2266     1.0  0.86201  0.37555  0.94296  1.0000
  Fe  Fe255     1.0  0.82730  0.56453  0.75686  1.0000
  S   S507      1.0  0.82703  0.58533  0.78981  1.0000
  S   S508      1.0  0.84959  0.55813  0.75596  1.0000
  Fe  Fe256     1.0  0.79567  0.56106  0.72693  1.0000
  S   S509      1.0  0.79297  0.58097  0.75871  1.0000
  S   S510      1.0  0.77731  0.54737  0.68881  1.0000
  Fe  Fe257     1.0  0.81875  0.59518  0.74734  1.0000
  S   S511      1.0  0.82387  0.62234  0.73884  1.0000
  Fe  Fe258     1.0  0.80125  0.56976  0.79929  1.0000
  S   S512      1.0  0.79493  0.57248  0.85233  1.0000
  S   S513      1.0  0.82106  0.57593  0.71299  1.0000
  S   S514      1.0  0.80190  0.54824  0.76874  1.0000
  Fe  Fe259     1.0  0.89213  0.46299  0.85363  1.0000
  S   S515      1.0  0.91749  0.47176  0.83657  1.0000
  S   S516      1.0  0.87957  0.44129  0.88700  1.0000
  Fe  Fe260     1.0  0.88573  0.49019  0.81589  1.0000
  S   S517      1.0  0.91101  0.50132  0.79738  1.0000
  S   S518      1.0  0.86391  0.49602  0.80426  1.0000
  Fe  Fe261     1.0  0.90828  0.47481  0.78798  1.0000
  S   S519      1.0  0.91789  0.46821  0.74074  1.0000
  Fe  Fe262     1.0  0.91816  0.49730  0.84751  1.0000
  S   S520      1.0  0.93634  0.51368  0.88315  1.0000
  S   S521      1.0  0.88283  0.46392  0.80399  1.0000
  S   S522      1.0  0.89304  0.48831  0.86695  1.0000
  Fe  Fe263     1.0  0.88739  0.40103  0.60358  1.0000
  S   S523      1.0  0.89192  0.37752  0.60863  1.0000
  S   S524      1.0  0.87618  0.41033  0.64541  1.0000
  Fe  Fe264     1.0  0.90171  0.40758  0.53542  1.0000
  H   H4034     1.0  0.94387  0.39074  0.51402  1.0000
  H   H4035     1.0  0.95724  0.47195  0.67073  1.0000
  Fe  Fe265     1.0  0.88311  0.37146  0.55729  1.0000
  S   S525      1.0  0.86942  0.34736  0.52850  1.0000
  Fe  Fe266     1.0  0.91585  0.39294  0.58717  1.0000
  S   S526      1.0  0.93935  0.39246  0.60270  1.0000
  S   S527      1.0  0.87678  0.39398  0.55369  1.0000
  S   S528      1.0  0.91171  0.41646  0.58473  1.0000
  H   H4036     1.0  0.86437  0.63349  0.82313  1.0000
  H   H4037     1.0  0.94073  0.42549  0.61917  1.0000
  H   H4038     1.0  0.85208  0.53426  0.86292  1.0000
  C   C2267     1.0  0.85709  0.32665  0.53982  1.0000
  C   C2268     1.0  0.94547  0.44531  0.71241  1.0000
  H   H4039     1.0  0.85235  0.33249  0.58880  1.0000
  H   H4040     1.0  0.85979  0.43959  0.62269  1.0000
  C   C2269     1.0  0.90588  0.45234  0.71431  1.0000
  C   C2270     1.0  0.91165  0.45088  0.68304  1.0000
  C   C2271     1.0  0.90277  0.43797  0.66189  1.0000
  C   C2272     1.0  0.88788  0.42654  0.67158  1.0000
  C   C2273     1.0  0.88198  0.42818  0.70265  1.0000
  C   C2274     1.0  0.89103  0.44089  0.72409  1.0000
  H   H4041     1.0  0.92307  0.45974  0.67514  1.0000
  H   H4042     1.0  0.90735  0.43703  0.63792  1.0000
  H   H4043     1.0  0.87049  0.41938  0.71038  1.0000
  H   H4044     1.0  0.88663  0.44165  0.74834  1.0000
  C   C2275     1.0  0.88948  0.43659  0.91944  1.0000
  C   C2276     1.0  0.88055  0.42588  0.94391  1.0000
  C   C2277     1.0  0.88809  0.42110  0.96896  1.0000
  C   C2278     1.0  0.90465  0.42691  0.96959  1.0000
  C   C2279     1.0  0.91356  0.43776  0.94535  1.0000
  C   C2280     1.0  0.90604  0.44263  0.92045  1.0000
  H   H4045     1.0  0.86773  0.42120  0.94338  1.0000
  H   H4046     1.0  0.92047  0.45353  0.56323  1.0000
  H   H4047     1.0  0.92638  0.44240  0.94576  1.0000
  H   H4048     1.0  0.91306  0.45088  0.90182  1.0000
  H   H4049     1.0  0.88206  0.34730  0.88622  1.0000
  H   H4050     1.0  0.90878  0.39039  0.91641  1.0000
  H   H4051     1.0  0.73780  0.50659  0.52129  1.0000
  C   C2281     1.0  0.73759  0.59197  0.86045  1.0000
  C   C2282     1.0  0.85329  0.54071  0.76954  1.0000
  C   C2283     1.0  0.86884  0.54102  0.76733  1.0000
  C   C2284     1.0  0.87238  0.52756  0.77783  1.0000
  C   C2285     1.0  0.86036  0.51351  0.79061  1.0000
  C   C2286     1.0  0.84479  0.51310  0.79237  1.0000
  C   C2287     1.0  0.84128  0.52662  0.78220  1.0000
  H   H4052     1.0  0.87822  0.55180  0.75741  1.0000
  H   H4053     1.0  0.88438  0.52803  0.77577  1.0000
  H   H4054     1.0  0.83530  0.50223  0.80167  1.0000
  H   H4055     1.0  0.82925  0.52610  0.78388  1.0000
  C   C2288     1.0  0.76029  0.57190  0.60778  1.0000
  C   C2289     1.0  0.75435  0.55467  0.61053  1.0000
  C   C2290     1.0  0.75966  0.54736  0.63550  1.0000
  C   C2291     1.0  0.77086  0.55716  0.65805  1.0000
  C   C2292     1.0  0.77668  0.57441  0.65546  1.0000
  C   C2293     1.0  0.77137  0.58170  0.63052  1.0000
  H   H4056     1.0  0.74579  0.54696  0.59332  1.0000
  H   H4057     1.0  0.75504  0.53401  0.63738  1.0000
  H   H4058     1.0  0.78519  0.58211  0.67278  1.0000
  H   H4059     1.0  0.77567  0.59500  0.62911  1.0000
  C   C2294     1.0  0.74774  0.55233  0.90978  1.0000
  C   C2295     1.0  0.74902  0.54531  0.87939  1.0000
  C   C2296     1.0  0.76325  0.55155  0.86096  1.0000
  C   C2297     1.0  0.77639  0.56471  0.87310  1.0000
  C   C2298     1.0  0.77502  0.57185  0.90327  1.0000
  C   C2299     1.0  0.76075  0.56581  0.92139  1.0000
  H   H4060     1.0  0.73902  0.53490  0.87016  1.0000
  H   H4061     1.0  0.76417  0.54590  0.83783  1.0000
  H   H4062     1.0  0.78513  0.58201  0.91288  1.0000
  H   H4063     1.0  0.75996  0.57131  0.94473  1.0000
  C   C2300     1.0  0.76360  0.63131  0.91812  1.0000
  C   C2301     1.0  0.75100  0.62152  0.93827  1.0000
  C   C2302     1.0  0.74013  0.62790  0.95095  1.0000
  H   H4064     1.0  0.93403  0.45994  0.59687  1.0000
  C   C2303     1.0  0.83701  0.59570  0.62898  1.0000
  H   H4065     1.0  0.74964  0.60904  0.94391  1.0000
  H   H4066     1.0  0.86253  0.31805  0.92931  1.0000
  C   C2304     1.0  0.84186  0.63547  0.72090  1.0000
  C   C2305     1.0  0.85357  0.62968  0.71102  1.0000
  H   H4067     1.0  0.86605  0.54761  0.91191  1.0000
  H   H4068     1.0  0.95980  0.45682  0.81755  1.0000
  H   H4069     1.0  0.85179  0.61688  0.71483  1.0000
  S   S529      1.0  0.90767  0.38504  0.53667  1.0000
  H   H4070     1.0  0.73994  0.52622  0.53953  1.0000
  H   H4071     1.0  0.80272  0.63867  0.91232  1.0000
  H   H4072     1.0  0.84801  0.43713  0.72459  1.0000
  H   H4073     1.0  0.88113  0.41293  0.98774  1.0000
  H   H4074     1.0  0.89662  0.40375  0.71002  1.0000
  H   H4075     1.0  0.95269  0.48411  0.79048  1.0000
  H   H4076     1.0  0.85342  0.55837  0.83255  1.0000
  H   H4077     1.0  0.83575  0.37695  0.97719  1.0000
  H   H4078     1.0  0.76475  0.62616  0.84327  1.0000
  N   N126      1.0  0.87429  0.36983  0.92772  1.0000
  C   C2306     1.0  0.86703  0.35113  0.92601  1.0000
  C   C2307     1.0  0.88894  0.37585  0.94851  1.0000
  C   C2308     1.0  0.90507  0.37895  0.93092  1.0000
  C   C2309     1.0  0.94989  0.41721  0.51884  1.0000
  C   C2310     1.0  0.91824  0.38126  0.95493  1.0000
  H   H4079     1.0  0.86418  0.34587  0.95077  1.0000
  H   H4080     1.0  0.89044  0.38776  0.96110  1.0000
  H   H4081     1.0  0.88751  0.36703  0.96858  1.0000
  H   H4082     1.0  0.90449  0.36869  0.91426  1.0000
  H   H4083     1.0  0.89092  0.40233  0.91012  1.0000
  H   H4084     1.0  0.94323  0.44231  0.68621  1.0000
  H   H4085     1.0  0.94024  0.41490  0.53722  1.0000
  C   C2311     1.0  0.86761  0.64050  0.69602  1.0000
  H   H4086     1.0  0.94115  0.45487  0.77325  1.0000
  H   H4087     1.0  0.83779  0.64266  0.79650  1.0000
  H   H4088     1.0  0.92960  0.38368  0.94163  1.0000
  C   C2312     1.0  0.78777  0.62666  0.99712  1.0000
  H   H4089     1.0  0.84357  0.62459  0.83505  1.0000
  H   H4090     1.0  0.84338  0.61605  0.59645  1.0000
  H   H4091     1.0  0.87916  0.54499  0.99630  1.0000
  H   H4092     1.0  0.87665  0.63598  0.68833  1.0000
  C   C2313     1.0  0.74214  0.64422  0.94369  1.0000
  C   C2314     1.0  0.81024  0.62143  0.55910  1.0000
  H   H4093     1.0  0.81121  0.62553  0.81309  1.0000
  H   H4094     1.0  0.84613  0.45137  0.79273  1.0000
  H   H4095     1.0  0.89258  0.41549  0.85709  1.0000
  H   H4096     1.0  0.81540  0.63379  0.54761  1.0000
  H   H4097     1.0  0.82947  0.43819  0.76892  1.0000
  H   H4098     1.0  0.78893  0.59917  0.55255  1.0000
  H   H4099     1.0  0.78820  0.63492  0.70428  1.0000
  C   C2315     1.0  0.75403  0.62469  0.54667  1.0000
  H   H4100     1.0  0.94777  0.42292  0.77869  1.0000
  H   H4101     1.0  0.84397  0.43049  0.78259  1.0000
  H   H4102     1.0  0.79973  0.61093  0.60519  1.0000
  C   C2316     1.0  0.86387  0.54452  0.86051  1.0000
  C   C2317     1.0  0.85495  0.36790  0.97611  1.0000
  H   H4103     1.0  0.87187  0.45566  0.59571  1.0000
  H   H4104     1.0  0.91952  0.42370  0.73879  1.0000
  C   C2318     1.0  0.80275  0.63107  0.66519  1.0000
  N   N127      1.0  0.76235  0.60227  0.82269  1.0000
  C   C2319     1.0  0.75398  0.59150  0.79429  1.0000
  C   C2320     1.0  0.76075  0.61875  0.82053  1.0000
  C   C2321     1.0  0.77952  0.60429  0.82109  1.0000
  C   C2322     1.0  0.75520  0.59443  0.85446  1.0000
  C   C2323     1.0  0.75104  0.57284  0.79641  1.0000
  C   C2324     1.0  0.79075  0.61661  0.84589  1.0000
  C   C2325     1.0  0.74517  0.56379  0.76425  1.0000
  C   C2326     1.0  0.80807  0.61989  0.83741  1.0000
  H   H4105     1.0  0.76088  0.59612  0.77149  1.0000
  H   H4106     1.0  0.74231  0.59234  0.79023  1.0000
  H   H4107     1.0  0.80514  0.62173  0.67959  1.0000
  H   H4108     1.0  0.95460  0.53378  0.82963  1.0000
  H   H4109     1.0  0.78458  0.60789  0.79630  1.0000
  H   H4110     1.0  0.78053  0.59224  0.82503  1.0000
  H   H4111     1.0  0.75650  0.58240  0.85723  1.0000
  H   H4112     1.0  0.76183  0.60210  0.87513  1.0000
  H   H4113     1.0  0.76201  0.57101  0.80254  1.0000
  H   H4114     1.0  0.74188  0.56676  0.81524  1.0000
  H   H4115     1.0  0.78824  0.61138  0.87062  1.0000
  H   H4116     1.0  0.81576  0.60920  0.64558  1.0000
  H   H4117     1.0  0.77520  0.55106  0.56118  1.0000
  H   H4118     1.0  0.78959  0.62876  0.84643  1.0000
  H   H4119     1.0  0.75428  0.56885  0.74477  1.0000
  H   H4120     1.0  0.74289  0.55043  0.76674  1.0000
  H   H4121     1.0  0.73398  0.56492  0.75713  1.0000
  C   C2327     1.0  0.95694  0.52453  0.87626  1.0000
  C   C2328     1.0  0.96026  0.47529  0.69652  1.0000
  H   H4122     1.0  0.72866  0.56744  0.88137  1.0000
  H   H4123     1.0  0.93581  0.44923  0.72077  1.0000
  H   H4124     1.0  0.81595  0.62851  0.85551  1.0000
  C   C2329     1.0  0.81745  0.64106  0.64380  1.0000
  S   S530      1.0  0.71498  0.58051  0.53866  1.0000
  C   C2330     1.0  0.88075  0.53130  0.93450  1.0000
  H   H4125     1.0  0.81015  0.60818  0.83735  1.0000
  C   C2331     1.0  0.89608  0.53668  0.88409  1.0000
  H   H4126     1.0  0.84656  0.35485  0.97282  1.0000
  H   H4127     1.0  0.95111  0.47920  0.70800  1.0000
  C   C2332     1.0  0.85373  0.31375  0.51651  1.0000
  H   H4128     1.0  0.95963  0.40102  0.54183  1.0000
  H   H4129     1.0  0.90533  0.54744  0.94607  1.0000
  C   C2333     1.0  0.86098  0.56028  0.85419  1.0000
  C   C2334     1.0  0.87376  0.54632  0.89158  1.0000
  N   N128      1.0  0.94466  0.43020  0.73047  1.0000
  H   H4130     1.0  0.95032  0.44546  0.57132  1.0000
  C   C2335     1.0  0.92774  0.41776  0.73002  1.0000
  H   H4131     1.0  0.85476  0.56340  0.87517  1.0000
  S   S531      1.0  0.71966  0.54628  0.51999  1.0000
  H   H4132     1.0  0.90435  0.54909  0.89256  1.0000
  H   H4133     1.0  0.86444  0.36808  0.99250  1.0000
  C   C2336     1.0  0.91486  0.54046  0.83612  1.0000
  H   H4134     1.0  0.77956  0.57781  0.50688  1.0000
  H   H4135     1.0  0.76040  0.61874  0.56123  1.0000
  H   H4136     1.0  0.88393  0.55852  0.89061  1.0000
  H   H4137     1.0  0.91872  0.53079  0.84533  1.0000
  H   H4138     1.0  0.84702  0.51773  0.90746  1.0000
  H   H4139     1.0  0.92596  0.40761  0.74736  1.0000
  C   C2337     1.0  0.95454  0.40219  0.51827  1.0000
  H   H4140     1.0  0.93712  0.43919  0.53866  1.0000
  H   H4141     1.0  0.86668  0.51645  0.85937  1.0000
  H   H4142     1.0  0.90333  0.38696  0.71468  1.0000
  C   C2338     1.0  0.89099  0.54520  0.98872  1.0000
  N   N129      1.0  0.86142  0.47202  0.70206  1.0000
  C   C2339     1.0  0.85486  0.48370  0.68733  1.0000
  C   C2340     1.0  0.86192  0.45921  0.67726  1.0000
  C   C2341     1.0  0.85016  0.46313  0.72926  1.0000
  C   C2342     1.0  0.87757  0.48115  0.71652  1.0000
  C   C2343     1.0  0.89073  0.49215  0.69320  1.0000
  C   C2344     1.0  0.85368  0.49749  0.71030  1.0000
  C   C2345     1.0  0.85208  0.44752  0.74248  1.0000
  C   C2346     1.0  0.86616  0.46484  0.64166  1.0000
  C   C2347     1.0  0.86982  0.45184  0.62144  1.0000
  C   C2348     1.0  0.90517  0.50371  0.71170  1.0000
  C   C2349     1.0  0.84699  0.50856  0.69284  1.0000
  H   H4143     1.0  0.84278  0.47651  0.67774  1.0000
  H   H4144     1.0  0.86194  0.49007  0.66596  1.0000
  H   H4145     1.0  0.87021  0.45345  0.68515  1.0000
  H   H4146     1.0  0.85006  0.44887  0.67562  1.0000
  H   H4147     1.0  0.83759  0.45906  0.72151  1.0000
  H   H4148     1.0  0.85135  0.47168  0.75031  1.0000
  H   H4149     1.0  0.87670  0.48886  0.73773  1.0000
  H   H4150     1.0  0.88224  0.47230  0.72682  1.0000
  H   H4151     1.0  0.88668  0.50010  0.67833  1.0000
  H   H4152     1.0  0.89481  0.48418  0.67713  1.0000
  H   H4153     1.0  0.84573  0.49216  0.73137  1.0000
  H   H4154     1.0  0.86556  0.50557  0.71929  1.0000
  H   H4155     1.0  0.86457  0.45001  0.74784  1.0000
  H   H4156     1.0  0.85591  0.46652  0.63052  1.0000
  H   H4157     1.0  0.87650  0.47668  0.63961  1.0000
  H   H4158     1.0  0.88069  0.45057  0.63030  1.0000
  H   H4159     1.0  0.91437  0.51142  0.69433  1.0000
  H   H4160     1.0  0.90185  0.51207  0.72830  1.0000
  H   H4161     1.0  0.91034  0.49644  0.72585  1.0000
  H   H4162     1.0  0.85479  0.51479  0.67207  1.0000
  H   H4163     1.0  0.83485  0.50121  0.68403  1.0000
  H   H4164     1.0  0.84629  0.51828  0.70989  1.0000
  C   C2350     1.0  0.79182  0.55404  0.52014  1.0000
  H   H4165     1.0  0.92977  0.47513  0.57423  1.0000
  C   C2351     1.0  0.76940  0.62955  0.79128  1.0000
  C   C2352     1.0  0.94955  0.43440  0.76523  1.0000
  C   C2353     1.0  0.94848  0.44900  0.54651  1.0000
  H   H4166     1.0  0.86713  0.38921  0.94676  1.0000
  H   H4167     1.0  0.73027  0.58677  0.83883  1.0000
  H   H4168     1.0  0.77196  0.62632  0.90846  1.0000
  H   H4169     1.0  0.88132  0.39573  0.83848  1.0000
  H   H4170     1.0  0.74762  0.63029  0.56317  1.0000
  C   C2354     1.0  0.84228  0.44157  0.77356  1.0000
  H   H4171     1.0  0.85554  0.34693  0.91303  1.0000
  C   C2355     1.0  0.87751  0.37654  0.89374  1.0000
  H   H4172     1.0  0.78233  0.63245  0.79149  1.0000
  H   H4173     1.0  0.85314  0.39247  0.50747  1.0000
  C   C2356     1.0  0.88973  0.40196  0.85814  1.0000
  H   H4174     1.0  0.91985  0.39200  0.97131  1.0000
  H   H4175     1.0  0.96043  0.39653  0.68231  1.0000
  C   C2357     1.0  0.88233  0.39555  0.89120  1.0000
  S   S532      1.0  0.74148  0.58245  0.99554  1.0000
  N   N130      1.0  0.87963  0.53269  0.89827  1.0000
  H   H4176     1.0  0.85184  0.37297  0.92635  1.0000
  C   C2358     1.0  0.82620  0.61835  0.63274  1.0000
  H   H4177     1.0  0.94233  0.46858  0.52507  1.0000
  C   C2359     1.0  0.86761  0.32380  0.90578  1.0000
  H   H4178     1.0  0.73685  0.60408  0.86676  1.0000
  H   H4179     1.0  0.80460  0.56156  0.51506  1.0000
  H   H4180     1.0  0.78749  0.57228  0.55298  1.0000
  H   H4181     1.0  0.90097  0.52761  0.89277  1.0000
  H   H4182     1.0  0.78645  0.61807  0.54381  1.0000
  C   C2360     1.0  0.78727  0.55958  0.55356  1.0000
  H   H4183     1.0  0.89973  0.39279  0.67496  1.0000
  H   H4184     1.0  0.87167  0.39869  0.89440  1.0000
  H   H4185     1.0  0.94034  0.45413  0.83280  1.0000
  C   C2361     1.0  0.84066  0.49411  0.88289  1.0000
  H   H4186     1.0  0.86677  0.37057  0.87862  1.0000
  H   H4187     1.0  0.79840  0.54660  0.58265  1.0000
  C   C2362     1.0  0.87730  0.34233  0.91036  1.0000
  H   H4188     1.0  0.92302  0.55276  0.84529  1.0000
  H   H4189     1.0  0.83507  0.62400  0.65205  1.0000
  H   H4190     1.0  0.94680  0.49861  0.76958  1.0000
  H   H4191     1.0  0.79209  0.62450  0.65045  1.0000
  H   H4192     1.0  0.85526  0.64448  0.62831  1.0000
  C   C2363     1.0  0.79863  0.64241  0.68921  1.0000
  H   H4193     1.0  0.88683  0.37332  0.88130  1.0000
  H   H4194     1.0  0.88725  0.34360  0.92659  1.0000
  C   C2364     1.0  0.89310  0.54657  0.95192  1.0000
  H   H4195     1.0  0.90090  0.39987  0.85428  1.0000
  H   H4196     1.0  0.79514  0.56335  0.60336  1.0000
  H   H4197     1.0  0.77672  0.62810  0.99035  1.0000
  H   H4198     1.0  0.92770  0.43517  0.78771  1.0000
  H   H4199     1.0  0.75839  0.64309  0.51044  1.0000
  H   H4200     1.0  0.82334  0.60073  0.59254  1.0000
  C   C2365     1.0  0.85003  0.32279  0.57061  1.0000
  H   H4201     1.0  0.84963  0.62184  0.79425  1.0000
  C   C2366     1.0  0.83259  0.60805  0.60985  1.0000
  C   C2367     1.0  0.80731  0.62338  0.59590  1.0000
  C   C2368     1.0  0.83537  0.64340  0.59768  1.0000
  C   C2369     1.0  0.85206  0.63066  0.81512  1.0000
  H   H4202     1.0  0.88363  0.52034  0.94018  1.0000
  H   H4203     1.0  0.89476  0.54718  0.83696  1.0000
  H   H4204     1.0  0.76462  0.62310  0.76809  1.0000
  C   C2370     1.0  0.94042  0.44333  0.78499  1.0000
  C   C2371     1.0  0.73018  0.58027  0.88849  1.0000
  H   H4205     1.0  0.81844  0.61501  0.55454  1.0000
  H   H4206     1.0  0.83815  0.49878  0.85973  1.0000
  H   H4207     1.0  0.77075  0.63133  0.50711  1.0000
  H   H4208     1.0  0.86974  0.54184  0.83877  1.0000
  H   H4209     1.0  0.95337  0.42142  0.68779  1.0000
  H   H4210     1.0  0.84184  0.58862  0.61223  1.0000
  H   H4211     1.0  0.74510  0.61492  0.53182  1.0000
  H   H4212     1.0  0.89018  0.52505  0.83564  1.0000
  H   H4213     1.0  0.92845  0.40279  0.68640  1.0000
  H   H4214     1.0  0.92195  0.41934  0.67887  1.0000
  H   H4215     1.0  0.83878  0.63706  0.57707  1.0000
  C   C2372     1.0  0.90425  0.39759  0.69939  1.0000
  H   H4216     1.0  0.84618  0.60225  0.64721  1.0000
  C   C2373     1.0  0.76549  0.63778  0.52438  1.0000
  C   C2374     1.0  0.94543  0.46525  0.54902  1.0000
  C   C2375     1.0  0.79871  0.55933  0.57980  1.0000
  H   H4217     1.0  0.79961  0.63066  0.59700  1.0000
  H   H4218     1.0  0.82637  0.58677  0.64156  1.0000
  H   H4219     1.0  0.74803  0.61689  0.81873  1.0000
  H   H4220     1.0  0.85781  0.32169  0.88861  1.0000
  N   N131      1.0  0.82174  0.63136  0.61708  1.0000
  H   H4221     1.0  0.91573  0.54038  0.80925  1.0000
  H   H4222     1.0  0.78566  0.64493  0.55525  1.0000
  H   H4223     1.0  0.87437  0.50683  0.88750  1.0000
  C   C2376     1.0  0.95240  0.42534  0.62187  1.0000
  H   H4224     1.0  0.89201  0.55821  0.94458  1.0000
  N   N132      1.0  0.96181  0.44925  0.52401  1.0000
  H   H4225     1.0  0.86908  0.52908  0.94648  1.0000
  C   C2377     1.0  0.94722  0.44803  0.81894  1.0000
  C   C2378     1.0  0.89775  0.53706  0.84673  1.0000
  H   H4226     1.0  0.85356  0.50323  0.92654  1.0000
  C   C2379     1.0  0.86871  0.51599  0.88557  1.0000
  C   C2380     1.0  0.93159  0.46329  0.57232  1.0000
  H   H4227     1.0  0.82932  0.48829  0.89657  1.0000
  C   C2381     1.0  0.85228  0.50835  0.90285  1.0000
  H   H4228     1.0  0.84564  0.48454  0.87747  1.0000
  C   C2382     1.0  0.92148  0.40979  0.69653  1.0000
  S   S533      1.0  0.72386  0.61593  0.97566  1.0000
  H   H4229     1.0  0.87537  0.31762  0.89581  1.0000
  C   C2383     1.0  0.72585  0.50381  0.97019  1.0000
  H   H4230     1.0  0.72889  0.50733  0.94445  1.0000
  H   H4231     1.0  0.91541  0.36993  0.96952  1.0000
  H   H4232     1.0  0.73174  0.49537  0.97703  1.0000
  C   C2384     1.0  0.95491  0.49743  0.78815  1.0000
  H   H4233     1.0  0.79375  0.62506  0.97437  1.0000
  C   C2385     1.0  0.95495  0.41083  0.61520  1.0000
  H   H4234     1.0  0.89222  0.53377  0.99713  1.0000
  H   H4235     1.0  0.96250  0.44196  0.76660  1.0000
  H   H4236     1.0  0.73766  0.58409  0.91036  1.0000
  H   H4237     1.0  0.81101  0.56789  0.57381  1.0000
  H   H4238     1.0  0.94365  0.39727  0.72921  1.0000
  H   H4239     1.0  0.76595  0.52467  0.52444  1.0000
  C   C2386     1.0  0.95578  0.40699  0.72788  1.0000
  H   H4240     1.0  0.95598  0.47569  0.55815  1.0000
  C   C2387     1.0  0.75886  0.52719  0.50537  1.0000
  H   H4241     1.0  0.94640  0.43683  0.83228  1.0000
  H   H4242     1.0  0.95205  0.50216  0.81166  1.0000
  C   C2388     1.0  0.84567  0.37726  0.99263  1.0000
  H   H4243     1.0  0.73056  0.51517  0.98565  1.0000
  C   C2389     1.0  0.95582  0.42335  0.71406  1.0000
  H   H4244     1.0  0.79730  0.61014  0.51582  1.0000
  Fe  Fe267     1.0  0.72090  0.59025  0.99223  1.0000
  H   H4245     1.0  0.75440  0.64390  0.79139  1.0000
  H   H4246     1.0  0.96087  0.40916  0.75252  1.0000
  H   H4247     1.0  0.85356  0.39035  0.99758  1.0000
  C   C2390     1.0  0.74153  0.52003  0.51669  1.0000
  H   H4248     1.0  0.71831  0.58033  0.89474  1.0000
  H   H4249     1.0  0.84656  0.37015  0.50274  1.0000
  H   H4250     1.0  0.79116  0.54127  0.52366  1.0000
  H   H4251     1.0  0.76041  0.55199  0.51877  1.0000
  H   H4252     1.0  0.81879  0.64443  0.96310  1.0000
  C   C2391     1.0  0.96128  0.46066  0.71454  1.0000
  C   C2392     1.0  0.81118  0.67350  0.47980  1.0000
  H   H4253     1.0  0.74074  0.85287  0.46364  1.0000
  H   H4254     1.0  0.72022  0.74940  0.37270  1.0000
  S   S534      1.0  0.73879  0.93203  0.07474  1.0000
  H   H4255     1.0  0.76326  0.75890  0.45976  1.0000
  H   H4256     1.0  0.72582  0.75522  0.30113  1.0000
  Fe  Fe268     1.0  0.88465  0.72015  0.18866  1.0000
  S   S535      1.0  0.89763  0.70313  0.17826  1.0000
  S   S536      1.0  0.87980  0.72239  0.24267  1.0000
  Fe  Fe269     1.0  0.88125  0.72528  0.11643  1.0000
  S   S537      1.0  0.89329  0.70811  0.10233  1.0000
  S   S538      1.0  0.87621  0.73815  0.07319  1.0000
  Fe  Fe270     1.0  0.87851  0.69173  0.14170  1.0000
  S   S539      1.0  0.86295  0.66463  0.13350  1.0000
  Fe  Fe271     1.0  0.91152  0.72154  0.14000  1.0000
  S   S540      1.0  0.93736  0.72844  0.12089  1.0000
  S   S541      1.0  0.86510  0.70799  0.15325  1.0000
  S   S542      1.0  0.89985  0.73938  0.15304  1.0000
  Fe  Fe272     1.0  0.80938  0.72095  0.36027  1.0000
  S   S543      1.0  0.80602  0.73874  0.39739  1.0000
  S   S544      1.0  0.81946  0.72973  0.31004  1.0000
  Fe  Fe273     1.0  0.79163  0.69096  0.40193  1.0000
  S   S545      1.0  0.78668  0.70622  0.44162  1.0000
  S   S546      1.0  0.78617  0.66355  0.40503  1.0000
  Fe  Fe274     1.0  0.78089  0.72030  0.40199  1.0000
  S   S547      1.0  0.75769  0.72471  0.40562  1.0000
  Fe  Fe275     1.0  0.81210  0.72330  0.43403  1.0000
  S   S548      1.0  0.82710  0.73494  0.47808  1.0000
  S   S549      1.0  0.78384  0.70337  0.36268  1.0000
  S   S550      1.0  0.81755  0.70722  0.39646  1.0000
  H   H4257     1.0  0.77660  0.97877  0.20630  1.0000
  C   C2393     1.0  0.82471  0.66737  0.16316  1.0000
  H   H4258     1.0  0.78619  0.73221  0.25144  1.0000
  C   C2394     1.0  0.72655  0.92758  0.20150  1.0000
  H   H4259     1.0  0.76276  0.73722  0.23812  1.0000
  H   H4260     1.0  0.72481  0.93147  0.22666  1.0000
  C   C2395     1.0  0.75295  0.74130  0.39140  1.0000
  C   C2396     1.0  0.73691  0.73891  0.38792  1.0000
  C   C2397     1.0  0.73259  0.75153  0.37579  1.0000
  C   C2398     1.0  0.74430  0.76680  0.36732  1.0000
  C   C2399     1.0  0.76033  0.76931  0.37148  1.0000
  C   C2400     1.0  0.76465  0.75665  0.38337  1.0000
  H   H4261     1.0  0.72775  0.72710  0.39422  1.0000
  H   H4262     1.0  0.74379  0.77057  0.43737  1.0000
  H   H4263     1.0  0.76949  0.78111  0.36520  1.0000
  H   H4264     1.0  0.77702  0.75877  0.38635  1.0000
  C   C2401     1.0  0.94144  0.77734  0.04385  1.0000
  C   C2402     1.0  0.83871  0.68039  0.06145  1.0000
  H   H4265     1.0  0.75754  0.66774  0.42882  1.0000
  C   C2403     1.0  0.85816  0.73014  0.05164  1.0000
  C   C2404     1.0  0.84358  0.72226  0.06758  1.0000
  C   C2405     1.0  0.82933  0.71750  0.05031  1.0000
  C   C2406     1.0  0.91940  0.72264  0.02960  1.0000
  C   C2407     1.0  0.84287  0.71369  0.48524  1.0000
  H   H4266     1.0  0.79154  0.66730  0.04233  1.0000
  H   H4267     1.0  0.84325  0.72034  0.09343  1.0000
  H   H4268     1.0  0.81810  0.71190  0.06306  1.0000
  H   H4269     1.0  0.83750  0.70783  0.46280  1.0000
  H   H4270     1.0  0.75914  0.95605  0.24241  1.0000
  C   C2408     1.0  0.86200  0.72284  0.25971  1.0000
  C   C2409     1.0  0.85231  0.72883  0.24261  1.0000
  C   C2410     1.0  0.83918  0.73066  0.25822  1.0000
  C   C2411     1.0  0.83532  0.72603  0.29067  1.0000
  C   C2412     1.0  0.84440  0.71906  0.30710  1.0000
  C   C2413     1.0  0.85795  0.71794  0.29200  1.0000
  H   H4271     1.0  0.85534  0.73273  0.21780  1.0000
  H   H4272     1.0  0.83214  0.73594  0.24521  1.0000
  H   H4273     1.0  0.84124  0.71504  0.33176  1.0000
  H   H4274     1.0  0.86544  0.71339  0.30541  1.0000
  C   C2414     1.0  0.76182  0.78265  0.47261  1.0000
  Fe  Fe276     1.0  0.71660  0.78701  0.34351  1.0000
  H   H4275     1.0  0.87972  0.66574  0.19303  1.0000
  H   H4276     1.0  0.84949  0.66229  0.30830  1.0000
  C   C2415     1.0  0.74686  0.81826  0.42050  1.0000
  C   C2416     1.0  0.75576  0.71813  0.31276  1.0000
  N   N133      1.0  0.73915  0.79175  0.45560  1.0000
  H   H4277     1.0  0.72516  0.83615  0.41738  1.0000
  H   H4278     1.0  0.78916  0.68605  0.26937  1.0000
  H   H4279     1.0  0.85674  0.76844  0.48839  1.0000
  C   C2417     1.0  0.80024  0.76147  0.32051  1.0000
  C   C2418     1.0  0.82949  0.72020  0.01683  1.0000
  H   H4280     1.0  0.85288  0.68291  0.24655  1.0000
  H   H4281     1.0  0.82857  0.68413  0.20346  1.0000
  C   C2419     1.0  0.72886  0.75406  0.27522  1.0000
  C   C2420     1.0  0.72316  0.78441  0.43972  1.0000
  C   C2421     1.0  0.74452  0.75158  0.27201  1.0000
  H   H4282     1.0  0.76953  0.93192  0.15046  1.0000
  S   S551      1.0  0.73974  0.78317  0.35155  1.0000
  C   C2422     1.0  0.82121  0.67301  0.05212  1.0000
  C   C2423     1.0  0.74390  0.95184  0.09395  1.0000
  C   C2424     1.0  0.76000  0.96248  0.09589  1.0000
  H   H4283     1.0  0.81585  0.68192  0.06023  1.0000
  C   C2425     1.0  0.73243  0.95746  0.10628  1.0000
  H   H4284     1.0  0.76900  0.95827  0.08661  1.0000
  C   C2426     1.0  0.76509  0.76734  0.48117  1.0000
  H   H4285     1.0  0.72692  0.95054  0.17916  1.0000
  H   H4286     1.0  0.81218  0.65287  0.21918  1.0000
  H   H4287     1.0  0.91720  0.74331  0.00649  1.0000
  C   C2427     1.0  0.85377  0.67390  0.29429  1.0000
  C   C2428     1.0  0.95613  0.74560  0.12391  1.0000
  C   C2429     1.0  0.75627  0.65511  0.43290  1.0000
  H   H4288     1.0  0.82616  0.65956  0.46999  1.0000
  C   C2430     1.0  0.82138  0.64959  0.27773  1.0000
  H   H4289     1.0  0.74197  0.95829  0.22622  1.0000
  H   H4290     1.0  0.76271  0.80975  0.44431  1.0000
  H   H4291     1.0  0.89825  0.77902  0.06306  1.0000
  C   C2431     1.0  0.75094  0.80378  0.43272  1.0000
  C   C2432     1.0  0.72007  0.93698  0.17799  1.0000
  H   H4292     1.0  0.78226  0.74004  0.34136  1.0000
  H   H4293     1.0  0.79671  0.77053  0.33452  1.0000
  H   H4294     1.0  0.88464  0.77043  0.01061  1.0000
  C   C2433     1.0  0.84727  0.67089  0.25933  1.0000
  C   C2434     1.0  0.77462  0.71437  0.21468  1.0000
  H   H4295     1.0  0.82268  0.65333  0.30381  1.0000
  H   H4296     1.0  0.82308  0.68243  0.00345  1.0000
  H   H4297     1.0  0.95176  0.75466  0.17049  1.0000
  H   H4298     1.0  0.71845  0.91430  0.19973  1.0000
  H   H4299     1.0  0.88770  0.65056  0.13201  1.0000
  H   H4300     1.0  0.77719  0.75555  0.27816  1.0000
  H   H4301     1.0  0.73999  0.69333  0.35640  1.0000
  C   C2435     1.0  0.73869  0.80005  0.48796  1.0000
  C   C2436     1.0  0.87189  0.68052  0.29384  1.0000
  H   H4302     1.0  0.83010  0.64991  0.21385  1.0000
  C   C2437     1.0  0.77223  0.74736  0.29933  1.0000
  C   C2438     1.0  0.74139  0.70169  0.30652  1.0000
  H   H4303     1.0  0.80505  0.76662  0.29640  1.0000
  H   H4304     1.0  0.75200  0.95233  0.16890  1.0000
  H   H4305     1.0  0.80979  0.75947  0.33373  1.0000
  H   H4306     1.0  0.90648  0.71685  0.03512  1.0000
  H   H4307     1.0  0.77459  0.71163  0.26596  1.0000
  N   N134      1.0  0.75833  0.73190  0.28913  1.0000
  H   H4308     1.0  0.77115  0.83360  0.40581  1.0000
  N   N135      1.0  0.92486  0.76769  0.05645  1.0000
  H   H4309     1.0  0.75598  0.83880  0.38731  1.0000
  C   C2439     1.0  0.85834  0.73279  0.01811  1.0000
  H   H4310     1.0  0.94267  0.77383  0.01816  1.0000
  C   C2440     1.0  0.77482  0.72136  0.24900  1.0000
  C   C2441     1.0  0.80200  0.68906  0.27291  1.0000
  S   S552      1.0  0.72044  0.81380  0.33485  1.0000
  H   H4311     1.0  0.81538  0.66138  0.06573  1.0000
  C   C2442     1.0  0.90556  0.78205  0.04041  1.0000
  C   C2443     1.0  0.74463  0.77770  0.46047  1.0000
  C   C2444     1.0  0.78612  0.74500  0.31669  1.0000
  C   C2445     1.0  0.93198  0.78155  0.14765  1.0000
  H   H4312     1.0  0.75419  0.72247  0.33758  1.0000
  H   H4313     1.0  0.71907  0.74351  0.26392  1.0000
  H   H4314     1.0  0.73332  0.72539  0.27976  1.0000
  C   C2446     1.0  0.80625  0.67461  0.26099  1.0000
  H   H4315     1.0  0.74708  0.82680  0.44088  1.0000
  C   C2447     1.0  0.74068  0.68869  0.33134  1.0000
  H   H4316     1.0  0.72994  0.76562  0.26290  1.0000
  H   H4317     1.0  0.75912  0.82056  0.37379  1.0000
  H   H4318     1.0  0.94635  0.77849  0.10847  1.0000
  H   H4319     1.0  0.76823  0.75484  0.31684  1.0000
  C   C2448     1.0  0.73702  0.97349  0.12016  1.0000
  N   N136      1.0  0.74351  0.92939  0.19561  1.0000
  C   C2449     1.0  0.74432  0.92016  0.16473  1.0000
  S   S553      1.0  0.72128  0.88593  0.09843  1.0000
  C   C2450     1.0  0.75442  0.94732  0.19189  1.0000
  C   C2451     1.0  0.74870  0.92242  0.22431  1.0000
  C   C2452     1.0  0.74016  0.90344  0.22893  1.0000
  C   C2453     1.0  0.76073  0.91941  0.15644  1.0000
  H   H4320     1.0  0.74700  0.75062  0.24580  1.0000
  H   H4321     1.0  0.74221  0.69652  0.28211  1.0000
  H   H4322     1.0  0.76632  0.71490  0.31410  1.0000
  C   C2454     1.0  0.74639  0.89771  0.25843  1.0000
  H   H4323     1.0  0.85210  0.66245  0.24662  1.0000
  H   H4324     1.0  0.77053  0.78918  0.45335  1.0000
  H   H4325     1.0  0.74128  0.92598  0.14363  1.0000
  H   H4326     1.0  0.73513  0.90732  0.16490  1.0000
  H   H4327     1.0  0.93162  0.74832  0.07462  1.0000
  H   H4328     1.0  0.74436  0.90392  0.28085  1.0000
  C   C2455     1.0  0.71926  0.84006  0.43693  1.0000
  H   H4329     1.0  0.76695  0.94848  0.18939  1.0000
  H   H4330     1.0  0.76172  0.92560  0.22338  1.0000
  H   H4331     1.0  0.74663  0.92834  0.24716  1.0000
  H   H4332     1.0  0.74197  0.89638  0.20762  1.0000
  H   H4333     1.0  0.71418  0.79837  0.49533  1.0000
  C   C2456     1.0  0.85900  0.65093  0.16624  1.0000
  H   H4334     1.0  0.76526  0.91449  0.17675  1.0000
  H   H4335     1.0  0.73519  0.81382  0.40857  1.0000
  H   H4336     1.0  0.77382  0.66710  0.48699  1.0000
  H   H4337     1.0  0.73999  0.88411  0.26109  1.0000
  H   H4338     1.0  0.76494  0.67034  0.04154  1.0000
  H   H4339     1.0  0.87694  0.69237  0.28056  1.0000
  H   H4340     1.0  0.91495  0.79456  0.04323  1.0000
  H   H4341     1.0  0.75297  0.79700  0.41107  1.0000
  H   H4342     1.0  0.73000  0.67723  0.32726  1.0000
  H   H4343     1.0  0.75926  0.90040  0.25540  1.0000
  C   C2457     1.0  0.94695  0.79642  0.04467  1.0000
  H   H4344     1.0  0.73006  0.70356  0.30885  1.0000
  C   C2458     1.0  0.72806  0.84963  0.46299  1.0000
  H   H4345     1.0  0.93547  0.79498  0.14331  1.0000
  H   H4346     1.0  0.80883  0.70038  0.25902  1.0000
  H   H4347     1.0  0.87631  0.68279  0.31903  1.0000
  H   H4348     1.0  0.93129  0.75959  0.12279  1.0000
  H   H4349     1.0  0.95025  0.77395  0.05702  1.0000
  H   H4350     1.0  0.93977  0.80033  0.02792  1.0000
  H   H4351     1.0  0.85007  0.68303  0.30745  1.0000
  N   N137      1.0  0.80306  0.65876  0.00348  1.0000
  H   H4352     1.0  0.73308  0.64800  0.45550  1.0000
  H   H4353     1.0  0.79830  0.66341  0.27390  1.0000
  H   H4354     1.0  0.82019  0.68216  0.49600  1.0000
  C   C2459     1.0  0.72057  0.85522  0.48802  1.0000
  C   C2460     1.0  0.74356  0.73582  0.29019  1.0000
  H   H4355     1.0  0.88970  0.79211  0.01918  1.0000
  H   H4356     1.0  0.76370  0.70310  0.21096  1.0000
  H   H4357     1.0  0.83137  0.68999  0.25595  1.0000
  H   H4358     1.0  0.87610  0.67139  0.28197  1.0000
  H   H4359     1.0  0.90848  0.65559  0.13811  1.0000
  N   N138      1.0  0.86895  0.74910  0.40146  1.0000
  C   C2461     1.0  0.85873  0.74844  0.37280  1.0000
  C   C2462     1.0  0.86452  0.73174  0.41381  1.0000
  C   C2463     1.0  0.86477  0.75898  0.42801  1.0000
  C   C2464     1.0  0.88652  0.75707  0.39383  1.0000
  C   C2465     1.0  0.89194  0.75480  0.35868  1.0000
  C   C2466     1.0  0.86055  0.76542  0.35852  1.0000
  C   C2467     1.0  0.87332  0.76054  0.46079  1.0000
  C   C2468     1.0  0.86801  0.71923  0.39098  1.0000
  C   C2469     1.0  0.86093  0.70176  0.40468  1.0000
  C   C2470     1.0  0.90996  0.76043  0.35610  1.0000
  C   C2471     1.0  0.84620  0.76992  0.36608  1.0000
  H   H4360     1.0  0.71832  0.79400  0.43538  1.0000
  H   H4361     1.0  0.84597  0.74123  0.37882  1.0000
  H   H4362     1.0  0.86120  0.74133  0.35246  1.0000
  H   H4363     1.0  0.87099  0.73178  0.43627  1.0000
  H   H4364     1.0  0.85167  0.72644  0.42054  1.0000
  H   H4365     1.0  0.85175  0.75361  0.43315  1.0000
  H   H4366     1.0  0.86751  0.77186  0.42011  1.0000
  H   H4367     1.0  0.89101  0.77071  0.39825  1.0000
  H   H4368     1.0  0.89324  0.75256  0.41088  1.0000
  H   H4369     1.0  0.88839  0.76237  0.34166  1.0000
  H   H4370     1.0  0.88667  0.74181  0.34995  1.0000
  H   H4371     1.0  0.87152  0.77568  0.36653  1.0000
  H   H4372     1.0  0.86158  0.76470  0.33165  1.0000
  H   H4373     1.0  0.88637  0.76504  0.45726  1.0000
  H   H4374     1.0  0.91734  0.77040  0.00795  1.0000
  H   H4375     1.0  0.86295  0.71860  0.36671  1.0000
  H   H4376     1.0  0.88102  0.72268  0.38853  1.0000
  H   H4377     1.0  0.84781  0.69743  0.40656  1.0000
  H   H4378     1.0  0.86393  0.69310  0.38831  1.0000
  H   H4379     1.0  0.86577  0.70147  0.42902  1.0000
  H   H4380     1.0  0.91584  0.77365  0.36355  1.0000
  H   H4381     1.0  0.91413  0.75272  0.37158  1.0000
  H   H4382     1.0  0.91348  0.75906  0.33059  1.0000
  H   H4383     1.0  0.84818  0.78216  0.35564  1.0000
  H   H4384     1.0  0.83542  0.76056  0.35498  1.0000
  H   H4385     1.0  0.84413  0.77053  0.39257  1.0000
  H   H4386     1.0  0.79030  0.73627  0.30354  1.0000
  H   H4387     1.0  0.75446  0.68113  0.48859  1.0000
  H   H4388     1.0  0.84535  0.69157  0.04699  1.0000
  H   H4389     1.0  0.82572  0.68041  0.29377  1.0000
  C   C2472     1.0  0.92218  0.77329  0.09016  1.0000
  C   C2473     1.0  0.75414  0.95910  0.22034  1.0000
  C   C2474     1.0  0.92273  0.74974  0.05839  1.0000
  H   H4390     1.0  0.75389  0.76292  0.28199  1.0000
  N   N139      1.0  0.82946  0.66442  0.25652  1.0000
  H   H4391     1.0  0.77185  0.90845  0.12103  1.0000
  H   H4392     1.0  0.80452  0.69155  0.29914  1.0000
  C   C2475     1.0  0.75984  0.90819  0.12709  1.0000
  C   C2476     1.0  0.93379  0.77261  0.11650  1.0000
  H   H4393     1.0  0.91954  0.77629  0.15688  1.0000
  H   H4394     1.0  0.74971  0.71676  0.24610  1.0000
  H   H4395     1.0  0.80600  0.68071  0.46540  1.0000
  H   H4396     1.0  0.90990  0.76562  0.09875  1.0000
  H   H4397     1.0  0.92274  0.78617  0.09023  1.0000
  H   H4398     1.0  0.86954  0.73895  0.00558  1.0000
  H   H4399     1.0  0.75193  0.89522  0.13248  1.0000
  H   H4400     1.0  0.91089  0.74232  0.06937  1.0000
  C   C2477     1.0  0.83932  0.72675  0.49842  1.0000
  C   C2478     1.0  0.92449  0.74132  0.02581  1.0000
  H   H4401     1.0  0.75133  0.68551  0.32899  1.0000
  C   C2479     1.0  0.91259  0.76871  0.03327  1.0000
  H   H4402     1.0  0.72061  0.93269  0.15278  1.0000
  C   C2480     1.0  0.76071  0.72681  0.25490  1.0000
  H   H4403     1.0  0.77522  0.72375  0.19641  1.0000
  H   H4404     1.0  0.78507  0.71094  0.21090  1.0000
  H   H4405     1.0  0.86921  0.74849  0.47325  1.0000
  H   H4406     1.0  0.74018  0.73731  0.31585  1.0000
  C   C2481     1.0  0.82395  0.67798  0.26728  1.0000
  C   C2482     1.0  0.75909  0.82839  0.39536  1.0000
  H   H4407     1.0  0.83980  0.68402  0.08750  1.0000
  H   H4408     1.0  0.90204  0.75680  0.03254  1.0000
  H   H4409     1.0  0.71284  0.77025  0.48462  1.0000
  H   H4410     1.0  0.75134  0.65964  0.00991  1.0000
  H   H4411     1.0  0.93710  0.74631  0.01757  1.0000
  H   H4412     1.0  0.82867  0.67587  0.44184  1.0000
  H   H4413     1.0  0.75541  0.91250  0.10569  1.0000
  H   H4414     1.0  0.72724  0.89998  0.23284  1.0000
  C   C2483     1.0  0.86938  0.65428  0.19222  1.0000
  H   H4415     1.0  0.72594  0.81549  0.47114  1.0000
  H   H4416     1.0  0.72000  0.94955  0.10464  1.0000
  H   H4417     1.0  0.92606  0.71988  0.04935  1.0000
  H   H4418     1.0  0.76393  0.79082  0.49442  1.0000
  H   H4419     1.0  0.94606  0.80118  0.06942  1.0000
  H   H4420     1.0  0.93980  0.78005  0.16650  1.0000
  C   C2484     1.0  0.89468  0.78261  0.01325  1.0000
  H   H4421     1.0  0.85648  0.69843  0.49023  1.0000
  H   H4422     1.0  0.82756  0.65668  0.15472  1.0000
  H   H4423     1.0  0.73675  0.76869  0.47813  1.0000
  H   H4424     1.0  0.80363  0.67288  0.23476  1.0000
  H   H4425     1.0  0.84422  0.67116  0.05742  1.0000
  C   C2485     1.0  0.81984  0.66593  0.45642  1.0000
  H   H4426     1.0  0.72443  0.77976  0.41489  1.0000
  C   C2486     1.0  0.96029  0.75629  0.15092  1.0000
  H   H4427     1.0  0.87433  0.78527  0.47383  1.0000
  C   C2487     1.0  0.83161  0.67337  0.19663  1.0000
  C   C2488     1.0  0.79150  0.66624  0.01547  1.0000
  C   C2489     1.0  0.81935  0.67002  0.01493  1.0000
  C   C2490     1.0  0.76401  0.66698  0.01534  1.0000
  H   H4428     1.0  0.81164  0.66369  0.16374  1.0000
  C   C2491     1.0  0.86974  0.77259  0.48392  1.0000
  C   C2492     1.0  0.76415  0.97711  0.21209  1.0000
  H   H4429     1.0  0.84473  0.67769  0.19436  1.0000
  H   H4430     1.0  0.76170  0.97278  0.00671  1.0000
  Fe  Fe277     1.0  0.71665  0.90808  0.08164  1.0000
  H   H4431     1.0  0.82834  0.66493  0.00717  1.0000
  H   H4432     1.0  0.75059  0.80971  0.49340  1.0000
  H   H4433     1.0  0.77758  0.77115  0.48892  1.0000
  C   C2493     1.0  0.76841  0.64990  0.42321  1.0000
  C   C2494     1.0  0.72624  0.80810  0.49224  1.0000
  H   H4434     1.0  0.71660  0.74982  0.44303  1.0000
  H   H4435     1.0  0.92180  0.71708  0.00667  1.0000
  C   C2495     1.0  0.82524  0.65929  0.22175  1.0000
  H   H4436     1.0  0.82995  0.67751  0.14551  1.0000
  H   H4437     1.0  0.79526  0.67914  0.00645  1.0000
  C   C2496     1.0  0.77388  0.65673  0.00672  1.0000
  H   H4438     1.0  0.81136  0.65694  0.43957  1.0000
  C   C2497     1.0  0.76457  0.97848  0.10999  1.0000
  C   C2498     1.0  0.84409  0.72766  0.00067  1.0000
  H   H4439     1.0  0.78953  0.65206  0.48086  1.0000
  H   H4440     1.0  0.76807  0.67846  0.00081  1.0000
  H   H4441     1.0  0.74490  0.97806  0.01693  1.0000
  H   H4442     1.0  0.72800  0.97771  0.12934  1.0000
  H   H4443     1.0  0.78837  0.68643  0.49794  1.0000
  S   S554      1.0  0.73413  0.89486  0.59924  1.0000
  H   H4444     1.0  0.91787  0.75834  0.69350  1.0000
  H   H4445     1.0  0.87490  0.67051  0.60640  1.0000
  H   H4446     1.0  0.71377  0.96669  0.65439  1.0000
  H   H4447     1.0  0.86541  0.66098  0.84212  1.0000
  C   C2499     1.0  0.86393  0.66357  0.59280  1.0000
  Fe  Fe278     1.0  0.87881  0.72419  0.66888  1.0000
  S   S555      1.0  0.89862  0.71804  0.68804  1.0000
  S   S556      1.0  0.86071  0.73120  0.69728  1.0000
  Fe  Fe279     1.0  0.88426  0.71516  0.59933  1.0000
  S   S557      1.0  0.90464  0.70811  0.61329  1.0000
  S   S558      1.0  0.87474  0.70920  0.54786  1.0000
  Fe  Fe280     1.0  0.88916  0.69558  0.65573  1.0000
  S   S559      1.0  0.88748  0.67025  0.67114  1.0000
  Fe  Fe281     1.0  0.91307  0.73127  0.64436  1.0000
  S   S560      1.0  0.93943  0.74620  0.65667  1.0000
  S   S561      1.0  0.86834  0.70074  0.63949  1.0000
  S   S562      1.0  0.89365  0.73934  0.62757  1.0000
  Fe  Fe282     1.0  0.82229  0.71696  0.87322  1.0000
  S   S563      1.0  0.81551  0.73469  0.90488  1.0000
  S   S564      1.0  0.84644  0.72282  0.84890  1.0000
  Fe  Fe283     1.0  0.79212  0.68725  0.89190  1.0000
  S   S565      1.0  0.78301  0.70263  0.92424  1.0000
  S   S566      1.0  0.78127  0.65936  0.88484  1.0000
  Fe  Fe284     1.0  0.79085  0.72162  0.88460  1.0000
  S   S567      1.0  0.77582  0.73351  0.85874  1.0000
  Fe  Fe285     1.0  0.80821  0.71433  0.94192  1.0000
  H   H4448     1.0  0.74678  0.70654  0.84897  1.0000
  S   S568      1.0  0.79837  0.70509  0.85073  1.0000
  S   S569      1.0  0.81666  0.69773  0.91178  1.0000
  H   H4449     1.0  0.75995  0.68861  0.87085  1.0000
  H   H4450     1.0  0.73772  0.79758  0.98193  1.0000
  H   H4451     1.0  0.84502  0.65307  0.85268  1.0000
  C   C2500     1.0  0.71434  0.82298  0.72607  1.0000
  N   N140      1.0  0.73058  0.69314  0.88678  1.0000
  S   S570      1.0  0.72403  0.80527  0.83587  1.0000
  C   C2501     1.0  0.76199  0.74314  0.86689  1.0000
  C   C2502     1.0  0.75497  0.74761  0.84058  1.0000
  C   C2503     1.0  0.74365  0.75485  0.84549  1.0000
  C   C2504     1.0  0.73909  0.75767  0.87690  1.0000
  C   C2505     1.0  0.74612  0.75322  0.90326  1.0000
  C   C2506     1.0  0.75755  0.74611  0.89835  1.0000
  H   H4452     1.0  0.75830  0.74542  0.81612  1.0000
  H   H4453     1.0  0.73836  0.75811  0.82492  1.0000
  H   H4454     1.0  0.74269  0.75530  0.92769  1.0000
  H   H4455     1.0  0.76288  0.74289  0.91888  1.0000
  H   H4456     1.0  0.71329  0.67593  0.91887  1.0000
  H   H4457     1.0  0.86030  0.67270  0.58044  1.0000
  H   H4458     1.0  0.94737  0.79893  0.69999  1.0000
  C   C2507     1.0  0.81328  0.67271  0.56352  1.0000
  C   C2508     1.0  0.85687  0.72864  0.54369  1.0000
  H   H4459     1.0  0.73204  0.82079  0.96166  1.0000
  H   H4460     1.0  0.90905  0.77367  0.66234  1.0000
  C   C2509     1.0  0.73035  0.79573  0.96005  1.0000
  H   H4461     1.0  0.94479  0.71212  0.57151  1.0000
  H   H4462     1.0  0.86226  0.73451  0.56615  1.0000
  H   H4463     1.0  0.92482  0.73803  0.72980  1.0000
  H   H4464     1.0  0.84438  0.72988  0.97494  1.0000
  H   H4465     1.0  0.75498  0.69937  0.97480  1.0000
  C   C2510     1.0  0.85659  0.72748  0.73914  1.0000
  C   C2511     1.0  0.86839  0.72799  0.76065  1.0000
  C   C2512     1.0  0.86515  0.72677  0.79424  1.0000
  C   C2513     1.0  0.84995  0.72445  0.80651  1.0000
  C   C2514     1.0  0.83806  0.72355  0.78494  1.0000
  C   C2515     1.0  0.84146  0.72533  0.75145  1.0000
  H   H4466     1.0  0.88014  0.72990  0.75149  1.0000
  H   H4467     1.0  0.87444  0.72760  0.81078  1.0000
  H   H4468     1.0  0.82637  0.72192  0.79409  1.0000
  H   H4469     1.0  0.83234  0.72516  0.73501  1.0000
  C   C2516     1.0  0.74980  0.84982  0.93280  1.0000
  C   C2517     1.0  0.85828  0.66287  0.70080  1.0000
  H   H4470     1.0  0.86002  0.67566  0.69696  1.0000
  C   C2518     1.0  0.77868  0.65131  0.54400  1.0000
  H   H4471     1.0  0.83347  0.68091  0.77307  1.0000
  N   N141      1.0  0.78945  0.66596  0.52483  1.0000
  H   H4472     1.0  0.94823  0.76215  0.59283  1.0000
  C   C2519     1.0  0.75493  0.65411  0.92405  1.0000
  Fe  Fe286     1.0  0.72019  0.87762  0.55915  1.0000
  H   H4473     1.0  0.88106  0.76610  0.76334  1.0000
  H   H4474     1.0  0.91497  0.79549  0.66657  1.0000
  C   C2520     1.0  0.71904  0.82715  0.69370  1.0000
  H   H4475     1.0  0.92411  0.74111  0.77302  1.0000
  H   H4476     1.0  0.83161  0.65279  0.58665  1.0000
  H   H4477     1.0  0.74135  0.83244  0.89250  1.0000
  H   H4478     1.0  0.87908  0.78395  0.74543  1.0000
  H   H4479     1.0  0.72692  0.66826  0.90131  1.0000
  C   C2521     1.0  0.84434  0.65212  0.71604  1.0000
  C   C2522     1.0  0.82763  0.67054  0.79003  1.0000
  S   S571      1.0  0.71437  0.87151  0.68474  1.0000
  C   C2523     1.0  0.73976  0.95594  0.60257  1.0000
  C   C2524     1.0  0.86996  0.65709  0.69070  1.0000
  C   C2525     1.0  0.73696  0.70353  0.94650  1.0000
  C   C2526     1.0  0.75217  0.95574  0.62165  1.0000
  C   C2527     1.0  0.89178  0.77213  0.71509  1.0000
  H   H4480     1.0  0.76463  0.69758  0.81337  1.0000
  H   H4481     1.0  0.75290  0.94403  0.62725  1.0000
  N   N142      1.0  0.75035  0.82033  0.92746  1.0000
  C   C2528     1.0  0.75102  0.83577  0.91062  1.0000
  C   C2529     1.0  0.75225  0.80797  0.90312  1.0000
  H   H4482     1.0  0.74851  0.67858  0.80137  1.0000
  C   C2530     1.0  0.84629  0.73410  0.52782  1.0000
  C   C2531     1.0  0.78573  0.96330  0.56580  1.0000
  C   C2532     1.0  0.87907  0.77142  0.74045  1.0000
  S   S572      1.0  0.71468  0.80437  0.74172  1.0000
  C   C2533     1.0  0.76337  0.81481  0.87331  1.0000
  C   C2534     1.0  0.76540  0.80078  0.85344  1.0000
  H   H4483     1.0  0.94661  0.79086  0.75564  1.0000
  H   H4484     1.0  0.92102  0.79207  0.60484  1.0000
  H   H4485     1.0  0.73096  0.68900  0.83462  1.0000
  C   C2535     1.0  0.78015  0.67448  0.50826  1.0000
  H   H4486     1.0  0.76217  0.84148  0.89639  1.0000
  H   H4487     1.0  0.93272  0.80033  0.76724  1.0000
  H   H4488     1.0  0.74057  0.80033  0.89246  1.0000
  H   H4489     1.0  0.81829  0.69019  0.60441  1.0000
  H   H4490     1.0  0.85837  0.65129  0.78373  1.0000
  C   C2536     1.0  0.73910  0.97140  0.59577  1.0000
  H   H4491     1.0  0.80375  0.65824  0.81025  1.0000
  H   H4492     1.0  0.94133  0.75373  0.74974  1.0000
  H   H4493     1.0  0.74155  0.86131  0.89462  1.0000
  H   H4494     1.0  0.73235  0.71352  0.94496  1.0000
  H   H4495     1.0  0.72939  0.71739  0.89161  1.0000
  C   C2537     1.0  0.72149  0.70441  0.88538  1.0000
  H   H4496     1.0  0.77323  0.65341  0.77057  1.0000
  H   H4497     1.0  0.75818  0.82130  0.85705  1.0000
  H   H4498     1.0  0.77527  0.82367  0.88026  1.0000
  Fe  Fe287     1.0  0.71880  0.90928  0.59005  1.0000
  C   C2538     1.0  0.76782  0.67840  0.52978  1.0000
  H   H4499     1.0  0.87550  0.77300  0.50752  1.0000
  C   C2539     1.0  0.74630  0.97099  0.96741  1.0000
  C   C2540     1.0  0.71982  0.67577  0.89592  1.0000
  C   C2541     1.0  0.92766  0.78432  0.61148  1.0000
  H   H4500     1.0  0.90017  0.69580  0.76153  1.0000
  C   C2542     1.0  0.75107  0.86484  0.91291  1.0000
  H   H4501     1.0  0.73626  0.79108  0.50810  1.0000
  H   H4502     1.0  0.90954  0.78326  0.75148  1.0000
  C   C2543     1.0  0.90832  0.78480  0.72525  1.0000
  H   H4503     1.0  0.72744  0.69240  0.95658  1.0000
  H   H4504     1.0  0.93749  0.77021  0.70519  1.0000
  H   H4505     1.0  0.90760  0.75357  0.74748  1.0000
  H   H4506     1.0  0.82804  0.66517  0.84095  1.0000
  H   H4507     1.0  0.75265  0.71134  0.90472  1.0000
  H   H4508     1.0  0.75950  0.85407  0.95064  1.0000
  H   H4509     1.0  0.72423  0.71314  0.83531  1.0000
  H   H4510     1.0  0.72311  0.84519  0.65592  1.0000
  S   S573      1.0  0.72433  0.76607  0.88478  1.0000
  C   C2544     1.0  0.73402  0.81247  0.94288  1.0000
  H   H4511     1.0  0.77339  0.80594  0.83230  1.0000
  S   S574      1.0  0.81116  0.71446  0.99660  1.0000
  H   H4512     1.0  0.78160  0.84481  0.92958  1.0000
  H   H4513     1.0  0.73831  0.84578  0.94610  1.0000
  H   H4514     1.0  0.72966  0.81255  0.54435  1.0000
  C   C2545     1.0  0.78084  0.97625  0.55011  1.0000
  C   C2546     1.0  0.92065  0.76014  0.74490  1.0000
  H   H4515     1.0  0.80743  0.69030  0.53546  1.0000
  H   H4516     1.0  0.93932  0.77946  0.65230  1.0000
  H   H4517     1.0  0.73913  0.95772  0.97221  1.0000
  H   H4518     1.0  0.72957  0.97180  0.58115  1.0000
  H   H4519     1.0  0.74856  0.69079  0.91736  1.0000
  H   H4520     1.0  0.93528  0.81052  0.70776  1.0000
  H   H4521     1.0  0.74970  0.87450  0.92919  1.0000
  C   C2547     1.0  0.92490  0.76819  0.71097  1.0000
  H   H4522     1.0  0.93817  0.78729  0.59507  1.0000
  H   H4523     1.0  0.84904  0.66162  0.63446  1.0000
  H   H4524     1.0  0.76036  0.72055  0.96210  1.0000
  N   N143      1.0  0.92226  0.78402  0.70593  1.0000
  H   H4525     1.0  0.77624  0.97155  0.52587  1.0000
  H   H4526     1.0  0.75376  0.79212  0.84423  1.0000
  C   C2548     1.0  0.73927  0.69349  0.85505  1.0000
  N   N144      1.0  0.85278  0.67573  0.82526  1.0000
  C   C2549     1.0  0.86170  0.68300  0.79445  1.0000
  C   C2550     1.0  0.83576  0.67446  0.82348  1.0000
  C   C2551     1.0  0.86055  0.68756  0.85281  1.0000
  S   S575      1.0  0.72494  0.93746  0.58615  1.0000
  H   H4527     1.0  0.76204  0.81246  0.96482  1.0000
  C   C2552     1.0  0.87978  0.68694  0.79432  1.0000
  C   C2553     1.0  0.85192  0.68335  0.88628  1.0000
  H   H4528     1.0  0.83538  0.65672  0.72365  1.0000
  H   H4529     1.0  0.75614  0.79896  0.91534  1.0000
  C   C2554     1.0  0.85087  0.65304  0.61615  1.0000
  C   C2555     1.0  0.88707  0.69169  0.76055  1.0000
  C   C2556     1.0  0.86030  0.69665  0.91167  1.0000
  H   H4530     1.0  0.86022  0.69471  0.78913  1.0000
  H   H4531     1.0  0.85657  0.67483  0.77320  1.0000
  C   C2557     1.0  0.77995  0.83363  0.94372  1.0000
  H   H4532     1.0  0.83499  0.68647  0.83107  1.0000
  H   H4533     1.0  0.86186  0.70036  0.84660  1.0000
  H   H4534     1.0  0.87280  0.68824  0.85670  1.0000
  H   H4535     1.0  0.75936  0.83101  0.97421  1.0000
  H   H4536     1.0  0.95520  0.70828  0.60497  1.0000
  C   C2558     1.0  0.85351  0.65920  0.83273  1.0000
  H   H4537     1.0  0.72476  0.81046  0.92425  1.0000
  H   H4538     1.0  0.88592  0.69765  0.81066  1.0000
  H   H4539     1.0  0.88229  0.67616  0.80221  1.0000
  H   H4540     1.0  0.78426  0.82533  0.92920  1.0000
  H   H4541     1.0  0.83955  0.68260  0.88506  1.0000
  H   H4542     1.0  0.81276  0.66017  0.90133  1.0000
  H   H4543     1.0  0.74606  0.71233  0.99446  1.0000
  C   C2559     1.0  0.80089  0.67829  0.54775  1.0000
  H   H4544     1.0  0.82798  0.65911  0.77893  1.0000
  C   C2560     1.0  0.76242  0.82412  0.95389  1.0000
  H   H4545     1.0  0.92455  0.76926  0.76502  1.0000
  H   H4546     1.0  0.76280  0.87014  0.90037  1.0000
  H   H4547     1.0  0.79431  0.68147  0.56805  1.0000
  H   H4548     1.0  0.88417  0.70193  0.75096  1.0000
  H   H4549     1.0  0.72007  0.82448  0.52514  1.0000
  H   H4550     1.0  0.80734  0.66194  0.57937  1.0000
  H   H4551     1.0  0.85389  0.69339  0.93531  1.0000
  H   H4552     1.0  0.87270  0.69771  0.91482  1.0000
  H   H4553     1.0  0.86037  0.70885  0.90437  1.0000
  H   H4554     1.0  0.89181  0.75953  0.71160  1.0000
  H   H4555     1.0  0.78957  0.82847  0.98824  1.0000
  C   C2561     1.0  0.81704  0.65469  0.95062  1.0000
  H   H4556     1.0  0.74332  0.67025  0.85892  1.0000
  C   C2562     1.0  0.75045  0.70929  0.97086  1.0000
  C   C2563     1.0  0.71447  0.70600  0.85227  1.0000
  C   C2564     1.0  0.92819  0.74749  0.74959  1.0000
  H   H4557     1.0  0.78998  0.96726  0.59080  1.0000
  S   S576      1.0  0.73197  0.86719  0.52039  1.0000
  C   C2565     1.0  0.93311  0.78770  0.64657  1.0000
  C   C2566     1.0  0.86073  0.71586  0.53007  1.0000
  H   H4558     1.0  0.85170  0.67136  0.89501  1.0000
  H   H4559     1.0  0.80308  0.84565  0.96546  1.0000
  H   H4560     1.0  0.75640  0.66665  0.91871  1.0000
  H   H4561     1.0  0.77307  0.65545  0.56479  1.0000
  H   H4562     1.0  0.72292  0.81903  0.67885  1.0000
  H   H4563     1.0  0.83124  0.69770  0.56949  1.0000
  H   H4564     1.0  0.86717  0.76342  0.73138  1.0000
  H   H4565     1.0  0.82834  0.66576  0.95175  1.0000
  H   H4566     1.0  0.78710  0.84808  0.98853  1.0000
  C   C2567     1.0  0.81023  0.66836  0.79323  1.0000
  H   H4567     1.0  0.77249  0.65321  0.81420  1.0000
  H   H4568     1.0  0.73381  0.64924  0.95352  1.0000
  H   H4569     1.0  0.88826  0.77584  0.69186  1.0000
  H   H4570     1.0  0.77239  0.65375  0.98057  1.0000
  C   C2568     1.0  0.91899  0.78513  0.67045  1.0000
  C   C2569     1.0  0.75011  0.68350  0.85352  1.0000
  H   H4571     1.0  0.92002  0.77104  0.60789  1.0000
  C   C2570     1.0  0.93693  0.79899  0.71438  1.0000
  H   H4572     1.0  0.95261  0.82782  0.75117  1.0000
  C   C2571     1.0  0.82476  0.68663  0.58441  1.0000
  H   H4573     1.0  0.88258  0.68088  0.74375  1.0000
  Fe  Fe288     1.0  0.71428  0.87858  0.63192  1.0000
  C   C2572     1.0  0.95878  0.76589  0.60736  1.0000
  C   C2573     1.0  0.94234  0.80078  0.75000  1.0000
  H   H4574     1.0  0.82052  0.66928  0.54504  1.0000
  H   H4575     1.0  0.76597  0.67789  0.81985  1.0000
  C   C2574     1.0  0.71423  0.85259  0.69968  1.0000
  H   H4576     1.0  0.90793  0.79734  0.72334  1.0000
  H   H4577     1.0  0.75822  0.66685  0.53815  1.0000
  C   C2575     1.0  0.79804  0.65987  0.49922  1.0000
  C   C2576     1.0  0.75771  0.68446  0.81988  1.0000
  H   H4578     1.0  0.77063  0.79376  0.86831  1.0000
  C   C2577     1.0  0.80346  0.65882  0.96688  1.0000
  H   H4579     1.0  0.96010  0.81816  0.78121  1.0000
  H   H4580     1.0  0.80929  0.68002  0.80227  1.0000
  C   C2578     1.0  0.72951  0.81945  0.52217  1.0000
  H   H4581     1.0  0.73262  0.78657  0.94390  1.0000
  H   H4582     1.0  0.83367  0.68254  0.59516  1.0000
  H   H4583     1.0  0.84364  0.74423  0.53822  1.0000
  H   H4584     1.0  0.77348  0.68599  0.55131  1.0000
  C   C2579     1.0  0.74291  0.69974  0.91286  1.0000
  H   H4585     1.0  0.77533  0.95135  0.56726  1.0000
  C   C2580     1.0  0.95775  0.75979  0.63875  1.0000
  H   H4586     1.0  0.90135  0.78586  0.98990  1.0000
  C   C2581     1.0  0.81382  0.64984  0.91494  1.0000
  H   H4587     1.0  0.94178  0.80073  0.64802  1.0000
  C   C2582     1.0  0.71906  0.84191  0.68059  1.0000
  H   H4588     1.0  0.75054  0.68974  0.52628  1.0000
  H   H4589     1.0  0.95107  0.72693  0.60440  1.0000
  H   H4590     1.0  0.80456  0.66521  0.76916  1.0000
  H   H4591     1.0  0.79523  0.96129  0.55124  1.0000
  H   H4592     1.0  0.76881  0.70042  0.50454  1.0000
  C   C2583     1.0  0.79052  0.83927  0.97340  1.0000
  C   C2584     1.0  0.95437  0.71806  0.58923  1.0000
  C   C2585     1.0  0.76384  0.97075  0.63312  1.0000
  H   H4593     1.0  0.75527  0.97171  0.94824  1.0000
  H   H4594     1.0  0.77349  0.97036  0.64738  1.0000
  H   H4595     1.0  0.74104  0.83011  0.51939  1.0000
  H   H4596     1.0  0.80467  0.67119  0.95804  1.0000
  H   H4597     1.0  0.79207  0.65022  0.95675  1.0000
  C   C2586     1.0  0.76561  0.64762  0.91097  1.0000
  H   H4598     1.0  0.86675  0.65563  0.57436  1.0000
  H   H4599     1.0  0.79568  0.65182  0.67623  1.0000
  C   C2587     1.0  0.95622  0.81729  0.75569  1.0000
  C   C2588     1.0  0.75997  0.68800  0.51102  1.0000
  H   H4600     1.0  0.77081  0.97702  0.56463  1.0000
  H   H4601     1.0  0.81540  0.65173  0.63346  1.0000
  H   H4602     1.0  0.80325  0.65156  0.50990  1.0000
  H   H4603     1.0  0.73824  0.97678  0.95865  1.0000
  C   C2589     1.0  0.85361  0.70837  0.50086  1.0000
  H   H4604     1.0  0.71349  0.94603  0.65491  1.0000
  H   H4605     1.0  0.75717  0.76053  0.50132  1.0000
  H   H4606     1.0  0.82379  0.64704  0.90426  1.0000
  C   C2590     1.0  0.71301  0.78807  0.97122  1.0000
  C   C2591     1.0  0.76719  0.64600  0.79197  1.0000
  H   H4607     1.0  0.80870  0.64875  0.70564  1.0000
  C   C2592     1.0  0.85011  0.64640  0.80456  1.0000
  H   H4608     1.0  0.82742  0.64652  0.66082  1.0000
