data_image0
_chemical_formula_structural       HFeS2FeSHFe2S5CFeSFeS2FeSFeCS2C6H5CHC3HSCHCHCH4SHC6H4CNC12H33CHC2H2C2H3C3NHFeHNH5C2H5CHCHNCHCH3S2CH5CHCHC2H8CHCHCH2C3SH3CH2CHCH7FeCH4CHCH4SH2CHCH7C2HCH6CHC3HC2H2NCHCSHFeCSH2CH2CHC2HSNHC2H2C2H2FeSH3CH3CHC2H4C2HCH3NCHCH5CFeHSCHCH6CSH2C2SCHS2HSCH3CFe2CH3SCH2FeCSC2H6CH3C2HCH4CH4SH3C3H4CH2SC2H2C3FeCHSCH2NH2CSHFeCHCSC2H2CHCH4CH4SH3CHCH5CH4C5HCH5C2HCHC2HNHC2HCH2CH2NH2CH3CH2C3HC2H3CH2SH4FeCHSCH6CSH4FeCH2CHC3SH4C2FeH2CFeH8C3SCH2C2HFeHFeCHCSH2CH2CHC2H6NH3C2H5CHCSCSHCH3SCHC2HC3HCH3CHSHC2HCH2SH4FeS2Fe2SFeS2C4HCHC6H3C3HCHC2H2CHCSH3C2H2CHCH4CH4NHC3H2CH2CHCH2CH7CH3CH3NHCHCH6C2SHCH6CH2C2H6C2H5SCHSH8CHFeS2HSFeSFeS3H2CHC3HC6H4C3HNHC3H13CHC2H2CH12C2HCH2C3HCH4CHCFeHCSH2NH2CHC2H3C2H3CHCH2C3HC2H9CH3C2H2C3H4NCHCH3CHCHCH5CH3C3H3CH2CH3CH2NH4CH2CHCHC5H6CHCH7NCHC2HC2HCH4C2H2NHCHC2H8C2H2SFeS2FeS2FeSFeS3HFeS2Fe2S3HSC2H3CH3C6H4C6H7CSHCHCH6CH2FeCH6CH4FeCHC2NC6H16CHCHCSH2CH3CFeCNC6H3CH7C2HCH4CH3CH4CH2C2H2CH3C3H2SH3FeS2CHFeSCSCFeS2FeS2FeSFeS3H2C6H7C6H4C4H4NC7H2CH12C5H4CHCH2CH3C2H2NHC2H3CHCHC4H2CH9CH5NH6CHCH9
_chemical_formula_sum              "H768 Fe48 S96 C432 N24"
_cell_length_a       35.2595
_cell_length_b       35.1435
_cell_length_c       44.9781
_cell_angle_alpha    90.1846
_cell_angle_beta     89.7412
_cell_angle_gamma    119.878

_space_group_name_H-M_alt    "P 1"
_space_group_IT_number       1

loop_
  _space_group_symop_operation_xyz
  'x, y, z'

loop_
  _atom_site_type_symbol
  _atom_site_label
  _atom_site_symmetry_multiplicity
  _atom_site_fract_x
  _atom_site_fract_y
  _atom_site_fract_z
  _atom_site_occupancy
  H   H1        1.0  0.27144  0.15000  0.04130  1.0000
  Fe  Fe1       1.0  0.11836  0.39530  0.14201  1.0000
  S   S1        1.0  0.09508  0.32667  0.12645  1.0000
  S   S2        1.0  0.12736  0.40667  0.19151  1.0000
  Fe  Fe2       1.0  0.10549  0.42607  0.08100  1.0000
  S   S3        1.0  0.07939  0.35777  0.06179  1.0000
  H   H2        1.0  0.39256  0.31866  0.11019  1.0000
  Fe  Fe3       1.0  0.04123  0.33275  0.10492  1.0000
  Fe  Fe4       1.0  0.13585  0.35768  0.08531  1.0000
  S   S4        1.0  0.18524  0.33556  0.07219  1.0000
  S   S5        1.0  0.06318  0.40079  0.12183  1.0000
  S   S6        1.0  0.16323  0.42660  0.10295  1.0000
  S   S7        1.0  0.30258  0.43699  0.25064  1.0000
  S   S8        1.0  0.43695  0.31671  0.02283  1.0000
  C   C1        1.0  0.27095  0.32882  0.01375  1.0000
  Fe  Fe5       1.0  0.34978  0.06370  0.16209  1.0000
  S   S9        1.0  0.41844  0.08190  0.14901  1.0000
  Fe  Fe6       1.0  0.37841  0.15833  0.18380  1.0000
  S   S10       1.0  0.44856  0.18201  0.17096  1.0000
  S   S11       1.0  0.36449  0.21373  0.19737  1.0000
  Fe  Fe7       1.0  0.42134  0.14199  0.12962  1.0000
  S   S12       1.0  0.44864  0.16074  0.08317  1.0000
  Fe  Fe8       1.0  0.44023  0.11996  0.19155  1.0000
  C   C2        1.0  0.21959  0.14943  0.08920  1.0000
  S   S13       1.0  0.35170  0.12214  0.14020  1.0000
  S   S14       1.0  0.37105  0.09794  0.20688  1.0000
  C   C3        1.0  0.43993  0.27303  0.03925  1.0000
  C   C4        1.0  0.44490  0.27280  0.07015  1.0000
  C   C5        1.0  0.44677  0.23798  0.08392  1.0000
  C   C6        1.0  0.44513  0.20405  0.06666  1.0000
  C   C7        1.0  0.44112  0.20481  0.03569  1.0000
  C   C8        1.0  0.43769  0.23884  0.02202  1.0000
  H   H3        1.0  0.44687  0.29935  0.08351  1.0000
  H   H4        1.0  0.45003  0.23761  0.10782  1.0000
  H   H5        1.0  0.26473  0.42878  0.00109  1.0000
  H   H6        1.0  0.30065  0.32708  0.01526  1.0000
  H   H7        1.0  0.17398  0.44463  0.03595  1.0000
  C   C9        1.0  0.26894  0.45723  0.05697  1.0000
  H   H8        1.0  0.03355  0.37553  0.26475  1.0000
  C   C10       1.0  0.35440  0.23265  0.23184  1.0000
  C   C11       1.0  0.34085  0.20680  0.25753  1.0000
  C   C12       1.0  0.32996  0.22209  0.28354  1.0000
  H   H9        1.0  0.33770  0.17455  0.25716  1.0000
  S   S15       1.0  0.35453  0.40762  0.31409  1.0000
  C   C13       1.0  0.21126  0.33400  0.03839  1.0000
  H   H10       1.0  0.39666  0.34026  0.07306  1.0000
  C   C14       1.0  0.32269  0.00524  0.05771  1.0000
  H   H11       1.0  0.44879  0.21073  0.25900  1.0000
  C   C15       1.0  0.24977  0.33132  0.03984  1.0000
  H   H12       1.0  0.25859  0.45886  0.10482  1.0000
  H   H13       1.0  0.21997  0.41980  0.27586  1.0000
  H   H14       1.0  0.26345  0.33145  0.06132  1.0000
  H   H15       1.0  0.28250  0.18988  0.11053  1.0000
  S   S16       1.0  0.31701  0.28040  0.31753  1.0000
  H   H16       1.0  0.07648  0.34412  0.24699  1.0000
  C   C16       1.0  0.17587  0.41376  0.20739  1.0000
  C   C17       1.0  0.21138  0.42040  0.18972  1.0000
  C   C18       1.0  0.25043  0.42802  0.20320  1.0000
  C   C19       1.0  0.25363  0.42792  0.23428  1.0000
  C   C20       1.0  0.21768  0.42001  0.25188  1.0000
  C   C21       1.0  0.46668  0.24703  0.25649  1.0000
  H   H17       1.0  0.20910  0.42077  0.16576  1.0000
  H   H18       1.0  0.27821  0.43407  0.18954  1.0000
  H   H19       1.0  0.43392  0.23888  0.99816  1.0000
  H   H20       1.0  0.43994  0.17861  0.02229  1.0000
  C   C22       1.0  0.00657  0.31769  0.21182  1.0000
  N   N1        1.0  0.23529  0.28332  0.20949  1.0000
  C   C23       1.0  0.24984  0.24962  0.21140  1.0000
  C   C24       1.0  0.27410  0.32823  0.21554  1.0000
  C   C25       1.0  0.20227  0.27334  0.23411  1.0000
  C   C26       1.0  0.21442  0.28269  0.18005  1.0000
  C   C27       1.0  0.23181  0.27014  0.15202  1.0000
  C   C28       1.0  0.21286  0.20092  0.21049  1.0000
  C   C29       1.0  0.18609  0.30679  0.23836  1.0000
  C   C30       1.0  0.31295  0.34506  0.19342  1.0000
  C   C31       1.0  0.35174  0.38839  0.20385  1.0000
  C   C32       1.0  0.21694  0.28243  0.12359  1.0000
  C   C33       1.0  0.23121  0.17041  0.20402  1.0000
  C   C34       1.0  0.14838  0.29009  0.26075  1.0000
  H   H21       1.0  0.26772  0.25384  0.23260  1.0000
  H   H22       1.0  0.27380  0.25439  0.19373  1.0000
  H   H23       1.0  0.26425  0.35369  0.21505  1.0000
  H   H24       1.0  0.28675  0.32935  0.23843  1.0000
  H   H25       1.0  0.21587  0.27055  0.25585  1.0000
  H   H26       1.0  0.17245  0.24099  0.23025  1.0000
  H   H27       1.0  0.17856  0.25910  0.18065  1.0000
  H   H28       1.0  0.21706  0.31525  0.17600  1.0000
  H   H29       1.0  0.21910  0.23424  0.15145  1.0000
  H   H30       1.0  0.26784  0.28626  0.15132  1.0000
  H   H31       1.0  0.19616  0.19133  0.23246  1.0000
  H   H32       1.0  0.18792  0.19530  0.19350  1.0000
  H   H33       1.0  0.17500  0.31382  0.21709  1.0000
  H   H34       1.0  0.21271  0.33797  0.24740  1.0000
  H   H35       1.0  0.32490  0.32154  0.19069  1.0000
  H   H36       1.0  0.30308  0.35160  0.17149  1.0000
  H   H37       1.0  0.34329  0.41488  0.20333  1.0000
  H   H38       1.0  0.36158  0.38544  0.22678  1.0000
  H   H39       1.0  0.38008  0.39790  0.18877  1.0000
  H   H40       1.0  0.23120  0.31860  0.12227  1.0000
  H   H41       1.0  0.22802  0.27166  0.10378  1.0000
  H   H42       1.0  0.18069  0.26655  0.12288  1.0000
  H   H43       1.0  0.24781  0.17793  0.18201  1.0000
  H   H44       1.0  0.25509  0.17405  0.22142  1.0000
  H   H45       1.0  0.20424  0.13576  0.20389  1.0000
  H   H46       1.0  0.11936  0.25999  0.25240  1.0000
  H   H47       1.0  0.15821  0.28272  0.28246  1.0000
  H   H48       1.0  0.13928  0.31579  0.26452  1.0000
  H   H49       1.0  0.38739  0.02430  0.07505  1.0000
  H   H50       1.0  0.35526  0.18481  0.07841  1.0000
  H   H51       1.0  0.31143  0.28167  0.10709  1.0000
  H   H52       1.0  0.36925  0.29505  0.21337  1.0000
  H   H53       1.0  0.32332  0.19389  0.03103  1.0000
  C   C35       1.0  0.30112  0.17852  0.05051  1.0000
  H   H54       1.0  0.06833  0.34734  0.31805  1.0000
  C   C36       1.0  0.25761  0.49314  0.04885  1.0000
  C   C37       1.0  0.04563  0.32073  0.25862  1.0000
  H   H55       1.0  0.05492  0.30132  0.27336  1.0000
  H   H56       1.0  0.29614  0.46032  0.04279  1.0000
  C   C38       1.0  0.03370  0.34936  0.27840  1.0000
  C   C39       1.0  0.26892  0.22652  0.04235  1.0000
  H   H57       1.0  0.31862  0.20129  0.30299  1.0000
  H   H58       1.0  0.24817  0.01252  0.11519  1.0000
  H   H59       1.0  0.35021  0.24189  0.09091  1.0000
  C   C40       1.0  0.33254  0.26341  0.28434  1.0000
  C   C41       1.0  0.35813  0.27447  0.23291  1.0000
  C   C42       1.0  0.34750  0.28987  0.25896  1.0000
  N   N2        1.0  0.01170  0.29114  0.23638  1.0000
  H   H60       1.0  0.24030  0.42411  0.05447  1.0000
  Fe  Fe9       1.0  0.29676  0.41156  0.29724  1.0000
  H   H61       1.0  0.35048  0.32201  0.25933  1.0000
  N   N3        1.0  0.23821  0.49006  0.01845  1.0000
  H   H62       1.0  0.29158  0.43514  0.09433  1.0000
  H   H63       1.0  0.37323  0.35650  0.10272  1.0000
  H   H64       1.0  0.19330  0.15482  0.13211  1.0000
  H   H65       1.0  0.03828  0.34803  0.20737  1.0000
  H   H66       1.0  0.19554  0.15482  0.07681  1.0000
  C   C43       1.0  0.32247  0.15911  0.07103  1.0000
  C   C44       1.0  0.08011  0.25391  0.18778  1.0000
  H   H67       1.0  0.08359  0.23232  0.20417  1.0000
  H   H68       1.0  0.10068  0.39282  0.29334  1.0000
  H   H69       1.0  0.31559  0.30265  0.07000  1.0000
  H   H70       1.0  0.25068  0.24055  0.05401  1.0000
  H   H71       1.0  0.09837  0.30841  0.21729  1.0000
  C   C45       1.0  0.06990  0.28653  0.20333  1.0000
  H   H72       1.0  0.45366  0.25570  0.23675  1.0000
  C   C46       1.0  0.33127  0.00026  0.02445  1.0000
  H   H73       1.0  0.29417  0.25391  0.02860  1.0000
  N   N4        1.0  0.29057  0.21123  0.06468  1.0000
  C   C47       1.0  0.02759  0.26241  0.22238  1.0000
  H   H74       1.0  0.25660  0.18410  0.00335  1.0000
  C   C48       1.0  0.26300  0.19335  0.09238  1.0000
  H   H75       1.0  0.11123  0.27213  0.17514  1.0000
  H   H76       1.0  0.30198  0.14339  0.09095  1.0000
  H   H77       1.0  0.06670  0.30686  0.18594  1.0000
  S   S17       1.0  0.24836  0.34123  0.30648  1.0000
  S   S18       1.0  0.48942  0.11970  0.22482  1.0000
  C   C49       1.0  0.19417  0.33412  0.01042  1.0000
  H   H78       1.0  0.33968  0.03213  0.01395  1.0000
  H   H79       1.0  0.29601  0.09569  0.04868  1.0000
  H   H80       1.0  0.15178  0.40859  0.25212  1.0000
  H   H81       1.0  0.22411  0.12400  0.07777  1.0000
  H   H82       1.0  0.05367  0.23336  0.17185  1.0000
  C   C50       1.0  0.17905  0.41341  0.23843  1.0000
  H   H83       1.0  0.05905  0.39331  0.31635  1.0000
  C   C51       1.0  0.37615  0.32872  0.09347  1.0000
  H   H84       1.0  0.35612  0.26268  0.05417  1.0000
  C   C52       1.0  0.36483  0.03770  0.07351  1.0000
  C   C53       1.0  0.33349  0.25071  0.07361  1.0000
  H   H85       1.0  0.00684  0.39372  0.19244  1.0000
  H   H86       1.0  0.21260  0.16181  0.02980  1.0000
  H   H87       1.0  0.25359  0.21706  0.10118  1.0000
  H   H88       1.0  0.19884  0.41878  0.01746  1.0000
  H   H89       1.0  0.16408  0.33506  0.00898  1.0000
  H   H90       1.0  0.00149  0.32981  0.28941  1.0000
  H   H91       1.0  0.03458  0.24416  0.23961  1.0000
  H   H92       1.0  0.34848  0.13781  0.03447  1.0000
  C   C54       1.0  0.33072  0.29052  0.08620  1.0000
  H   H93       1.0  0.34517  0.11217  0.06969  1.0000
  C   C55       1.0  0.06757  0.37199  0.30300  1.0000
  H   H94       1.0  0.22162  0.12365  0.13291  1.0000
  C   C56       1.0  0.19952  0.13108  0.11969  1.0000
  H   H95       1.0  0.16790  0.10014  0.11684  1.0000
  H   H96       1.0  0.19548  0.22152  0.01551  1.0000
  C   C57       1.0  0.23765  0.19251  0.01925  1.0000
  C   C58       1.0  0.32825  0.12404  0.05481  1.0000
  C   C59       1.0  0.28434  0.46177  0.08918  1.0000
  S   S19       1.0  0.11384  0.47987  0.04808  1.0000
  H   H97       1.0  0.47682  0.40940  0.01090  1.0000
  H   H98       1.0  0.35693  0.04349  0.09643  1.0000
  H   H99       1.0  0.38154  0.06957  0.06160  1.0000
  C   C60       1.0  0.21415  0.21104  0.00094  1.0000
  H   H100      1.0  0.46014  0.26151  0.27650  1.0000
  H   H101      1.0  0.44384  0.42032  0.29646  1.0000
  C   C61       1.0  0.47243  0.43577  0.31162  1.0000
  H   H102      1.0  0.49602  0.42490  0.30527  1.0000
  C   C62       1.0  0.19479  0.44803  0.01629  1.0000
  H   H103      1.0  0.26502  0.00428  0.00228  1.0000
  H   H104      1.0  0.11300  0.37988  0.00056  1.0000
  H   H105      1.0  0.48864  0.47196  0.30893  1.0000
  H   H106      1.0  0.31450  0.49388  0.09271  1.0000
  H   H107      1.0  0.23522  0.49350  0.06630  1.0000
  H   H108      1.0  0.29945  0.01780  0.05967  1.0000
  H   H109      1.0  0.00151  0.23708  0.20801  1.0000
  Fe  Fe10      1.0  0.30523  0.33827  0.32582  1.0000
  C   C63       1.0  0.26990  0.49409  0.99420  1.0000
  H   H110      1.0  0.99781  0.29906  0.19047  1.0000
  H   H111      1.0  0.02865  0.29425  0.41835  1.0000
  H   H112      1.0  0.02533  0.41737  0.45291  1.0000
  H   H113      1.0  0.01795  0.31952  0.64248  1.0000
  C   C64       1.0  0.01482  0.33887  0.62414  1.0000
  H   H114      1.0  0.04517  0.37136  0.62319  1.0000
  C   C65       1.0  0.99982  0.39476  0.39542  1.0000
  H   H115      1.0  0.99928  0.42581  0.39259  1.0000
  H   H116      1.0  0.03094  0.42847  0.50688  1.0000
  H   H117      1.0  0.01161  0.32162  0.60278  1.0000
  H   H118      1.0  0.04559  0.37096  0.39928  1.0000
  S   S20       1.0  0.05247  0.31266  0.48159  1.0000
  H   H119      1.0  0.04410  0.38492  0.50818  1.0000
  H   H120      1.0  0.04581  0.38043  0.45085  1.0000
  C   C66       1.0  0.04739  0.40328  0.39633  1.0000
  H   H121      1.0  0.04830  0.47713  0.42273  1.0000
  C   C67       1.0  0.47098  0.36716  0.39320  1.0000
  H   H122      1.0  0.46541  0.34354  0.41144  1.0000
  H   H123      1.0  0.48721  0.43941  0.35831  1.0000
  H   H124      1.0  0.49154  0.33812  0.35677  1.0000
  H   H125      1.0  0.48772  0.40003  0.40414  1.0000
  H   H126      1.0  0.09881  0.47408  0.47744  1.0000
  H   H127      1.0  0.20821  0.48606  0.39611  1.0000
  H   H128      1.0  0.40662  0.28659  0.33872  1.0000
  C   C68       1.0  0.05802  0.42092  0.50628  1.0000
  C   C69       1.0  0.05593  0.41592  0.44979  1.0000
  H   H129      1.0  0.37341  0.20902  0.35124  1.0000
  C   C70       1.0  0.18849  0.45101  0.38958  1.0000
  H   H130      1.0  0.07835  0.48207  0.36807  1.0000
  H   H131      1.0  0.43710  0.43816  0.34986  1.0000
  H   H132      1.0  0.13657  0.45836  0.37130  1.0000
  H   H133      1.0  0.43379  0.27887  0.37042  1.0000
  H   H134      1.0  0.44588  0.35801  0.33387  1.0000
  H   H135      1.0  0.14569  0.46883  0.43064  1.0000
  C   C71       1.0  0.40368  0.27813  0.36267  1.0000
  H   H136      1.0  0.36406  0.21923  0.38915  1.0000
  C   C72       1.0  0.43150  0.37310  0.34840  1.0000
  C   C73       1.0  0.13489  0.33025  0.39666  1.0000
  C   C74       1.0  0.45785  0.42366  0.34392  1.0000
  H   H137      1.0  0.07935  0.43668  0.52582  1.0000
  C   C75       1.0  0.39765  0.36665  0.43110  1.0000
  C   C76       1.0  0.08019  0.47936  0.41728  1.0000
  H   H138      1.0  0.41654  0.43170  0.44876  1.0000
  H   H139      1.0  0.43411  0.41757  0.39917  1.0000
  N   N5        1.0  0.42766  0.35780  0.38015  1.0000
  C   C77       1.0  0.08931  0.31329  0.39464  1.0000
  H   H140      1.0  0.36768  0.33384  0.43202  1.0000
  C   C78       1.0  0.38769  0.39804  0.44859  1.0000
  S   S21       1.0  0.16587  0.33865  0.36324  1.0000
  H   H141      1.0  0.14383  0.34338  0.47203  1.0000
  Fe  Fe11      1.0  0.23869  0.36518  0.35110  1.0000
  C   C79       1.0  0.08471  0.43803  0.47762  1.0000
  S   S22       1.0  0.29225  0.35643  0.37166  1.0000
  H   H142      1.0  0.18906  0.35390  0.42688  1.0000
  H   H143      1.0  0.38037  0.37919  0.38758  1.0000
  C   C80       1.0  0.40994  0.38179  0.39836  1.0000
  H   H144      1.0  0.12235  0.40311  0.37892  1.0000
  H   H145      1.0  0.39104  0.29717  0.40488  1.0000
  C   C81       1.0  0.14001  0.43712  0.38781  1.0000
  H   H146      1.0  0.37912  0.38655  0.47191  1.0000
  C   C82       1.0  0.06351  0.30731  0.42028  1.0000
  C   C83       1.0  0.12124  0.43854  0.41890  1.0000
  H   H147      1.0  0.06125  0.41414  0.37377  1.0000
  S   S23       1.0  0.28433  0.43672  0.34012  1.0000
  N   N6        1.0  0.07658  0.43484  0.41992  1.0000
  H   H148      1.0  0.11198  0.43083  0.47878  1.0000
  C   C84       1.0  0.39442  0.30941  0.38172  1.0000
  C   C85       1.0  0.15419  0.34091  0.42482  1.0000
  H   H149      1.0  0.36150  0.30394  0.37533  1.0000
  H   H150      1.0  0.42462  0.36496  0.44249  1.0000
  C   C86       1.0  0.08291  0.31820  0.44840  1.0000
  C   C87       1.0  0.12838  0.33491  0.45043  1.0000
  H   H151      1.0  0.12058  0.41076  0.43128  1.0000
  H   H152      1.0  0.35954  0.39922  0.43854  1.0000
  Fe  Fe12      1.0  0.33875  0.42705  0.35810  1.0000
  S   S24       1.0  0.39125  0.47166  0.39182  1.0000
  H   H153      1.0  0.07392  0.30483  0.37304  1.0000
  H   H154      1.0  0.20008  0.44662  0.36750  1.0000
  H   H155      1.0  0.33494  0.22725  0.35907  1.0000
  C   C88       1.0  0.36672  0.23059  0.36582  1.0000
  H   H156      1.0  0.19384  0.43053  0.40591  1.0000
  H   H157      1.0  0.39832  0.36136  0.33895  1.0000
  H   H158      1.0  0.11287  0.39517  0.96243  1.0000
  C   C89       1.0  0.12316  0.01776  0.85202  1.0000
  H   H159      1.0  0.06247  0.00265  0.82953  1.0000
  C   C90       1.0  0.13406  0.39627  0.98098  1.0000
  C   C91       1.0  0.31904  0.00162  0.95703  1.0000
  H   H160      1.0  0.49147  0.06398  0.66385  1.0000
  H   H161      1.0  0.47443  0.02516  0.69427  1.0000
  H   H162      1.0  0.48598  0.44243  0.97801  1.0000
  H   H163      1.0  0.15095  0.37818  0.97400  1.0000
  C   C92       1.0  0.21527  0.33153  0.98431  1.0000
  C   C93       1.0  0.14787  0.01868  0.82308  1.0000
  H   H164      1.0  0.14916  0.46176  0.99199  1.0000
  C   C94       1.0  0.25366  0.32860  0.98574  1.0000
  H   H165      1.0  0.33947  0.02462  0.91190  1.0000
  H   H166      1.0  0.48734  0.49198  0.87031  1.0000
  H   H167      1.0  0.49108  0.08180  0.70140  1.0000
  N   N7        1.0  0.19691  0.03800  0.82520  1.0000
  C   C95       1.0  0.47557  0.49247  0.84754  1.0000
  H   H168      1.0  0.45787  0.45819  0.83909  1.0000
  C   C96       1.0  0.30606  0.45959  0.96353  1.0000
  H   H169      1.0  0.33669  0.47621  0.97671  1.0000
  H   H170      1.0  0.35709  0.19530  0.84823  1.0000
  H   H171      1.0  0.20671  0.06721  0.73415  1.0000
  H   H172      1.0  0.31614  0.03868  0.85955  1.0000
  H   H173      1.0  0.25834  0.06887  0.74035  1.0000
  C   C97       1.0  0.16741  0.44392  0.98820  1.0000
  Fe  Fe13      1.0  0.36419  0.24512  0.92366  1.0000
  H   H174      1.0  0.30203  0.42795  0.95520  1.0000
  S   S25       1.0  0.32727  0.05998  0.79536  1.0000
  C   C98       1.0  0.22221  0.04729  0.73963  1.0000
  H   H175      1.0  0.30875  0.48024  0.94410  1.0000
  C   C99       1.0  0.34509  0.13563  0.82569  1.0000
  H   H176      1.0  0.13960  0.03702  0.80660  1.0000
  H   H177      1.0  0.25349  0.07592  0.79695  1.0000
  H   H178      1.0  0.23701  0.43196  0.96905  1.0000
  H   H179      1.0  0.13051  0.05142  0.85798  1.0000
  H   H180      1.0  0.18467  0.10971  0.83159  1.0000
  H   H181      1.0  0.29192  0.00899  0.95671  1.0000
  C   C100      1.0  0.32497  0.07265  0.85693  1.0000
  S   S26       1.0  0.35607  0.29759  0.90047  1.0000
  H   H182      1.0  0.20295  0.06319  0.87024  1.0000
  H   H183      1.0  0.20752  0.08146  0.78797  1.0000
  C   C101      1.0  0.32768  0.09819  0.88210  1.0000
  C   C102      1.0  0.34827  0.16128  0.85089  1.0000
  S   S27       1.0  0.33909  0.25630  0.96747  1.0000
  C   C103      1.0  0.22755  0.14671  0.86759  1.0000
  H   H184      1.0  0.24215  0.13590  0.82317  1.0000
  S   S28       1.0  0.40497  0.36298  0.95695  1.0000
  S   S29       1.0  0.33988  0.17240  0.91192  1.0000
  H   H185      1.0  0.20250  0.13021  0.88525  1.0000
  S   S30       1.0  0.27828  0.32430  0.95199  1.0000
  C   C104      1.0  0.21711  0.05720  0.79528  1.0000
  H   H186      1.0  0.22814  0.17753  0.86128  1.0000
  H   H187      1.0  0.32049  0.08337  0.90393  1.0000
  H   H188      1.0  0.20139  0.33114  0.96284  1.0000
  C   C105      1.0  0.33322  0.09110  0.82841  1.0000
  Fe  Fe14      1.0  0.33606  0.31194  0.94540  1.0000
  Fe  Fe15      1.0  0.40885  0.30632  0.97665  1.0000
  C   C106      1.0  0.21774  0.07435  0.84791  1.0000
  H   H189      1.0  0.18846  0.45850  0.96833  1.0000
  H   H190      1.0  0.35164  0.15043  0.80385  1.0000
  H   H191      1.0  0.34893  0.03108  0.96522  1.0000
  S   S31       1.0  0.47741  0.39314  0.88087  1.0000
  C   C107      1.0  0.33936  0.14270  0.87933  1.0000
  H   H192      1.0  0.25265  0.08400  0.85087  1.0000
  H   H193      1.0  0.26021  0.15545  0.87656  1.0000
  Fe  Fe16      1.0  0.42603  0.34516  0.91435  1.0000
  C   C108      1.0  0.21697  0.11702  0.84037  1.0000
  S   S32       1.0  0.43485  0.29165  0.93523  1.0000
  C   C109      1.0  0.26673  0.45067  0.98283  1.0000
  C   C110      1.0  0.20527  0.02391  0.76938  1.0000
  H   H194      1.0  0.24388  0.01578  0.82851  1.0000
  H   H195      1.0  0.21425  0.02254  0.72175  1.0000
  H   H196      1.0  0.23819  0.23950  0.98762  1.0000
  H   H197      1.0  0.19101  0.18563  0.98530  1.0000
  H   H198      1.0  0.21268  0.00810  0.88131  1.0000
  H   H199      1.0  0.22088  0.00362  0.77275  1.0000
  C   C111      1.0  0.20828  0.00280  0.83224  1.0000
  H   H200      1.0  0.13239  0.00465  0.87123  1.0000
  H   H201      1.0  0.16935  0.00198  0.76768  1.0000
  H   H202      1.0  0.02747  0.64434  0.06045  1.0000
  C   C112      1.0  0.02980  0.61251  0.00244  1.0000
  C   C113      1.0  0.00140  0.57986  0.07979  1.0000
  H   H203      1.0  0.00516  0.60167  0.12575  1.0000
  C   C114      1.0  0.02544  0.59584  0.10941  1.0000
  H   H204      1.0  0.02113  0.57082  0.06514  1.0000
  H   H205      1.0  0.00332  0.66785  0.01936  1.0000
  H   H206      1.0  0.03239  0.57064  0.11857  1.0000
  H   H207      1.0  0.04439  0.56005  0.99349  1.0000
  C   C115      1.0  0.26848  0.57450  0.02034  1.0000
  H   H208      1.0  0.20353  0.52357  0.03240  1.0000
  H   H209      1.0  0.28452  0.64256  0.01655  1.0000
  H   H210      1.0  0.26163  0.91511  0.04357  1.0000
  H   H211      1.0  0.05367  0.62565  0.02086  1.0000
  S   S33       1.0  0.30021  0.99068  0.15536  1.0000
  H   H212      1.0  0.05698  0.62677  0.10642  1.0000
  H   H213      1.0  0.28339  0.84001  0.02520  1.0000
  H   H214      1.0  0.24255  0.96677  0.03193  1.0000
  C   C116      1.0  0.28077  0.91933  0.02291  1.0000
  C   C117      1.0  0.20725  0.95306  0.09018  1.0000
  C   C118      1.0  0.12383  0.55848  0.02775  1.0000
  H   H215      1.0  0.33936  0.91476  0.01118  1.0000
  H   H216      1.0  0.12608  0.54654  0.00600  1.0000
  H   H217      1.0  0.18984  0.96678  0.07883  1.0000
  H   H218      1.0  0.32928  0.86034  0.05005  1.0000
  C   C119      1.0  0.30152  0.86455  0.04286  1.0000
  H   H219      1.0  0.28892  0.52448  0.05132  1.0000
  H   H220      1.0  0.25785  0.89174  0.00843  1.0000
  S   S34       1.0  0.15261  0.87722  0.05928  1.0000
  C   C120      1.0  0.19594  0.90919  0.08455  1.0000
  C   C121      1.0  0.11530  0.54845  0.08091  1.0000
  H   H221      1.0  0.16793  0.94712  0.01517  1.0000
  H   H222      1.0  0.11100  0.52900  0.10055  1.0000
  C   C122      1.0  0.26205  0.96132  0.12650  1.0000
  C   C123      1.0  0.21852  0.89182  0.09962  1.0000
  C   C124      1.0  0.25090  0.91755  0.12070  1.0000
  Fe  Fe17      1.0  0.13011  0.72145  0.03200  1.0000
  C   C125      1.0  0.11835  0.58999  0.08352  1.0000
  H   H223      1.0  0.21009  0.85811  0.09576  1.0000
  S   S35       1.0  0.18698  0.79082  0.03326  1.0000
  C   C126      1.0  0.24043  0.97917  0.11072  1.0000
  H   H224      1.0  0.30871  0.97375  0.06989  1.0000
  H   H225      1.0  0.33988  0.93400  0.04840  1.0000
  N   N8        1.0  0.29389  0.96282  0.00825  1.0000
  H   H226      1.0  0.11655  0.60211  0.10531  1.0000
  H   H227      1.0  0.13184  0.61985  0.01086  1.0000
  C   C127      1.0  0.25519  0.97007  0.00881  1.0000
  S   S36       1.0  0.12580  0.66753  0.06315  1.0000
  H   H228      1.0  0.27963  0.85847  0.06229  1.0000
  Fe  Fe18      1.0  0.13820  0.81370  0.03529  1.0000
  C   C128      1.0  0.11782  0.53226  0.05295  1.0000
  H   H229      1.0  0.26704  0.90321  0.13294  1.0000
  C   C129      1.0  0.12375  0.61598  0.05832  1.0000
  S   S37       1.0  0.08086  0.74435  0.03827  1.0000
  C   C130      1.0  0.12689  0.60005  0.03039  1.0000
  C   C131      1.0  0.31879  0.91093  0.03089  1.0000
  H   H230      1.0  0.27874  0.58002  0.04399  1.0000
  H   H231      1.0  0.20272  0.90388  0.99748  1.0000
  C   C132      1.0  0.22899  0.52763  0.01591  1.0000
  H   H232      1.0  0.22825  0.60525  0.02621  1.0000
  C   C133      1.0  0.25626  0.60932  0.01236  1.0000
  H   H233      1.0  0.29668  0.57986  0.00631  1.0000
  H   H234      1.0  0.30416  0.51639  0.00155  1.0000
  H   H235      1.0  0.36154  0.99794  0.02248  1.0000
  H   H236      1.0  0.21516  0.52752  0.99371  1.0000
  C   C134      1.0  0.09061  0.54361  0.38581  1.0000
  H   H237      1.0  0.11512  0.78212  0.61473  1.0000
  H   H238      1.0  0.05542  0.53373  0.38736  1.0000
  H   H239      1.0  0.05312  0.80945  0.64306  1.0000
  H   H240      1.0  0.11829  0.75402  0.58225  1.0000
  S   S38       1.0  0.03285  0.71849  0.65481  1.0000
  H   H241      1.0  0.10361  0.56095  0.36435  1.0000
  H   H242      1.0  0.10871  0.56675  0.40419  1.0000
  H   H243      1.0  0.10319  0.50230  0.43415  1.0000
  C   C135      1.0  0.09640  0.50332  0.38715  1.0000
  H   H244      1.0  0.40215  0.66167  0.54432  1.0000
  C   C136      1.0  0.47937  0.76916  0.56516  1.0000
  H   H245      1.0  0.29984  0.97274  0.62870  1.0000
  H   H246      1.0  0.13188  0.51531  0.38453  1.0000
  H   H247      1.0  0.43137  0.53043  0.34048  1.0000
  H   H248      1.0  0.24544  0.78135  0.62003  1.0000
  H   H249      1.0  0.19815  0.78906  0.58693  1.0000
  C   C137      1.0  0.13629  0.78441  0.59571  1.0000
  H   H250      1.0  0.44364  0.66662  0.47874  1.0000
  H   H251      1.0  0.48616  0.77906  0.58889  1.0000
  H   H252      1.0  0.14256  0.81295  0.58170  1.0000
  H   H253      1.0  0.47295  0.63796  0.47827  1.0000
  C   C138      1.0  0.26211  0.91548  0.65691  1.0000
  C   C139      1.0  0.43953  0.52390  0.38719  1.0000
  C   C140      1.0  0.46656  0.54426  0.41198  1.0000
  C   C141      1.0  0.27892  0.88647  0.64247  1.0000
  C   C142      1.0  0.48378  0.71988  0.52545  1.0000
  H   H254      1.0  0.29109  0.89948  0.61972  1.0000
  C   C143      1.0  0.29506  0.96420  0.65269  1.0000
  H   H255      1.0  0.23055  0.90927  0.64744  1.0000
  H   H256      1.0  0.27665  0.83128  0.60084  1.0000
  H   H257      1.0  0.45769  0.52786  0.43329  1.0000
  H   H258      1.0  0.33730  0.58883  0.55004  1.0000
  H   H259      1.0  0.44462  0.75866  0.56046  1.0000
  C   C144      1.0  0.48997  0.58699  0.35731  1.0000
  C   C145      1.0  0.48840  0.73159  0.55907  1.0000
  H   H260      1.0  0.17104  0.75909  0.61996  1.0000
  C   C146      1.0  0.44937  0.63926  0.53409  1.0000
  H   H261      1.0  0.39057  0.63031  0.51057  1.0000
  C   C147      1.0  0.45165  0.54551  0.35977  1.0000
  C   C148      1.0  0.31019  0.82063  0.63748  1.0000
  H   H262      1.0  0.46559  0.70352  0.57306  1.0000
  N   N9        1.0  0.48430  0.67843  0.51745  1.0000
  H   H263      1.0  0.33677  0.85531  0.63894  1.0000
  C   C149      1.0  0.47575  0.66996  0.48455  1.0000
  C   C150      1.0  0.26814  0.81684  0.62360  1.0000
  H   H264      1.0  0.30816  0.89304  0.65571  1.0000
  C   C151      1.0  0.17918  0.78876  0.60682  1.0000
  H   H265      1.0  0.46641  0.68669  0.42494  1.0000
  H   H266      1.0  0.38039  0.59413  0.57413  1.0000
  C   C152      1.0  0.32761  0.79640  0.61857  1.0000
  H   H267      1.0  0.45891  0.63975  0.55772  1.0000
  H   H268      1.0  0.18313  0.83424  0.64109  1.0000
  N   N10       1.0  0.24651  0.83782  0.64094  1.0000
  H   H269      1.0  0.44608  0.60837  0.52479  1.0000
  H   H270      1.0  0.35781  0.79994  0.62884  1.0000
  C   C153      1.0  0.20596  0.83166  0.62501  1.0000
  H   H271      1.0  0.45379  0.71882  0.51667  1.0000
  H   H272      1.0  0.21469  0.85860  0.60865  1.0000
  H   H273      1.0  0.33574  0.81038  0.59578  1.0000
  C   C154      1.0  0.40274  0.63348  0.53364  1.0000
  H   H274      1.0  0.36822  0.56247  0.54008  1.0000
  H   H275      1.0  0.30306  0.76088  0.61722  1.0000
  C   C155      1.0  0.37033  0.59217  0.55053  1.0000
  C   C156      1.0  0.13771  0.85246  0.69320  1.0000
  C   C157      1.0  0.13314  0.81299  0.70372  1.0000
  H   H276      1.0  0.10820  0.79587  0.89273  1.0000
  C   C158      1.0  0.05373  0.76069  0.86239  1.0000
  C   C159      1.0  0.07384  0.76845  0.89342  1.0000
  H   H277      1.0  0.05526  0.77727  0.90932  1.0000
  H   H278      1.0  0.07526  0.75497  0.84711  1.0000
  H   H279      1.0  0.07384  0.73864  0.90161  1.0000
  C   C160      1.0  0.10049  0.77251  0.69202  1.0000
  H   H280      1.0  0.15477  0.81372  0.72092  1.0000
  H   H281      1.0  0.05446  0.79120  0.85540  1.0000
  S   S39       1.0  0.12593  0.71980  0.98208  1.0000
  H   H282      1.0  0.09775  0.74227  0.70009  1.0000
  H   H283      1.0  0.02989  0.71174  0.80604  1.0000
  H   H284      1.0  0.03349  0.76363  0.80815  1.0000
  H   H285      1.0  0.06416  0.95511  0.84335  1.0000
  Fe  Fe19      1.0  0.17843  0.79099  0.98385  1.0000
  C   C161      1.0  0.10825  0.85071  0.67144  1.0000
  H   H286      1.0  0.05682  0.99065  0.86877  1.0000
  S   S40       1.0  0.01473  0.70645  0.96124  1.0000
  C   C162      1.0  0.07130  0.77068  0.67002  1.0000
  H   H287      1.0  0.07679  0.60969  0.97257  1.0000
  H   H288      1.0  0.18193  0.76854  0.86113  1.0000
  H   H289      1.0  0.18101  0.76910  0.91634  1.0000
  H   H290      1.0  0.15008  0.92413  0.97869  1.0000
  H   H291      1.0  0.99942  0.79909  0.81898  1.0000
  H   H292      1.0  0.00839  0.78714  0.95857  1.0000
  C   C163      1.0  0.04355  0.58719  0.98147  1.0000
  S   S41       1.0  0.17989  0.90454  0.70619  1.0000
  H   H293      1.0  0.16141  0.96379  0.86715  1.0000
  H   H294      1.0  0.13240  0.98462  0.81410  1.0000
  H   H295      1.0  0.17089  0.76204  0.66914  1.0000
  H   H296      1.0  0.04303  0.72843  0.75025  1.0000
  Fe  Fe20      1.0  0.07836  0.74497  0.98806  1.0000
  C   C164      1.0  0.07365  0.98980  0.84804  1.0000
  H   H297      1.0  0.03953  0.77791  0.75407  1.0000
  H   H298      1.0  0.11120  0.88096  0.66320  1.0000
  C   C165      1.0  0.00667  0.72036  0.86192  1.0000
  H   H299      1.0  0.01120  0.69179  0.86685  1.0000
  C   C166      1.0  0.17858  0.94861  0.99171  1.0000
  C   C167      1.0  0.00965  0.72802  0.80679  1.0000
  C   C168      1.0  0.02032  0.74174  0.75106  1.0000
  S   S42       1.0  0.13100  0.81579  0.98555  1.0000
  H   H300      1.0  0.02063  0.57358  0.96242  1.0000
  H   H301      1.0  0.00318  0.73481  0.72933  1.0000
  H   H302      1.0  0.17718  0.72064  0.70993  1.0000
  H   H303      1.0  0.03198  0.64031  0.98951  1.0000
  C   C169      1.0  0.07513  0.81014  0.66001  1.0000
  C   C170      1.0  0.42913  0.92786  0.71334  1.0000
  Fe  Fe21      1.0  0.33274  0.93549  0.73993  1.0000
  H   H304      1.0  0.21505  0.75125  0.66186  1.0000
  H   H305      1.0  0.42659  0.97980  0.87503  1.0000
  C   C171      1.0  0.32765  0.99391  0.92485  1.0000
  Fe  Fe22      1.0  0.26904  0.89170  0.79122  1.0000
  H   H306      1.0  0.32700  0.97259  0.66282  1.0000
  H   H307      1.0  0.33807  0.95818  0.97684  1.0000
  H   H308      1.0  0.18929  0.98181  0.98264  1.0000
  H   H309      1.0  0.19406  0.77516  0.72316  1.0000
  H   H310      1.0  0.19119  0.97457  0.81675  1.0000
  H   H311      1.0  0.19795  0.92251  0.85213  1.0000
  H   H312      1.0  0.48124  0.80726  0.78114  1.0000
  H   H313      1.0  0.29700  0.96810  0.91446  1.0000
  C   C172      1.0  0.26791  0.87107  0.87278  1.0000
  C   C173      1.0  0.21559  0.93799  0.98962  1.0000
  C   C174      1.0  0.23720  0.83394  0.85732  1.0000
  S   S43       1.0  0.26597  0.87559  0.74280  1.0000
  C   C175      1.0  0.38085  0.89003  0.82628  1.0000
  H   H314      1.0  0.43993  0.95364  0.75783  1.0000
  H   H315      1.0  0.26579  0.51021  0.97414  1.0000
  C   C176      1.0  0.20454  0.77053  0.67561  1.0000
  C   C177      1.0  0.20257  0.75577  0.70777  1.0000
  H   H316      1.0  0.44447  0.92939  0.84848  1.0000
  Fe  Fe23      1.0  0.23710  0.91903  0.73725  1.0000
  H   H317      1.0  0.26588  0.83036  0.68519  1.0000
  Fe  Fe24      1.0  0.30455  0.98879  0.78078  1.0000
  C   C178      1.0  0.49220  0.94214  0.74351  1.0000
  H   H318      1.0  0.24727  0.60695  0.98851  1.0000
  C   C179      1.0  0.48597  0.91317  0.69394  1.0000
  S   S44       1.0  0.37933  0.92834  0.70723  1.0000
  H   H319      1.0  0.45229  0.50505  0.84868  1.0000
  H   H320      1.0  0.32284  0.78109  0.74119  1.0000
  C   C180      1.0  0.19729  0.98264  0.86383  1.0000
  H   H321      1.0  0.20618  0.93658  0.89100  1.0000
  H   H322      1.0  0.42467  0.79612  0.81797  1.0000
  C   C181      1.0  0.23553  0.82059  0.67229  1.0000
  H   H323      1.0  0.48586  0.85827  0.76937  1.0000
  C   C182      1.0  0.30819  0.96125  0.97680  1.0000
  C   C183      1.0  0.47805  0.83571  0.78858  1.0000
  H   H324      1.0  0.29792  0.79244  0.84992  1.0000
  H   H325      1.0  0.24991  0.96674  0.86491  1.0000
  H   H326      1.0  0.39290  0.91123  0.80620  1.0000
  H   H327      1.0  0.25774  0.90919  0.68115  1.0000
  H   H328      1.0  0.45011  0.87435  0.82919  1.0000
  H   H329      1.0  0.35302  0.98399  0.92372  1.0000
  N   N11       1.0  0.38106  0.84778  0.82078  1.0000
  H   H330      1.0  0.34613  0.80194  0.90874  1.0000
  H   H331      1.0  0.31567  0.75175  0.88744  1.0000
  H   H332      1.0  0.37147  0.95109  0.86111  1.0000
  C   C184      1.0  0.32164  0.81189  0.74393  1.0000
  C   C185      1.0  0.26875  0.87038  0.90397  1.0000
  H   H333      1.0  0.28255  0.98413  0.66372  1.0000
  H   H334      1.0  0.43839  0.88419  0.79289  1.0000
  H   H335      1.0  0.28809  0.77842  0.90364  1.0000
  H   H336      1.0  0.41699  0.98027  0.83575  1.0000
  H   H337      1.0  0.23451  0.75948  0.71436  1.0000
  C   C186      1.0  0.45235  0.94210  0.74003  1.0000
  H   H338      1.0  0.39944  0.90052  0.87385  1.0000
  C   C187      1.0  0.23737  0.83369  0.91973  1.0000
  S   S45       1.0  0.24080  0.83020  0.81863  1.0000
  C   C188      1.0  0.42634  0.85889  0.81072  1.0000
  S   S46       1.0  0.30370  0.97889  0.73096  1.0000
  H   H339      1.0  0.32781  0.84194  0.87125  1.0000
  C   C189      1.0  0.36966  0.82034  0.84864  1.0000
  H   H340      1.0  0.29233  0.89925  0.86070  1.0000
  H   H341      1.0  0.39680  0.83559  0.86504  1.0000
  H   H342      1.0  0.36616  0.78775  0.84353  1.0000
  S   S47       1.0  0.33795  0.94895  0.78927  1.0000
  C   C190      1.0  0.34728  0.82191  0.79741  1.0000
  H   H343      1.0  0.40911  0.80219  0.78099  1.0000
  C   C191      1.0  0.40578  0.95989  0.85622  1.0000
  C   C192      1.0  0.44634  0.91357  0.69032  1.0000
  H   H344      1.0  0.34205  0.78804  0.79554  1.0000
  C   C193      1.0  0.31889  0.78411  0.89278  1.0000
  C   C194      1.0  0.35647  0.84257  0.76590  1.0000
  C   C195      1.0  0.20511  0.79759  0.90427  1.0000
  H   H345      1.0  0.35589  0.87383  0.76625  1.0000
  C   C196      1.0  0.21391  0.95023  0.86811  1.0000
  H   H346      1.0  0.28860  0.80382  0.75192  1.0000
  H   H347      1.0  0.32756  0.82822  0.72194  1.0000
  H   H348      1.0  0.34681  0.88351  0.82975  1.0000
  C   C197      1.0  0.40949  0.91860  0.85249  1.0000
  H   H349      1.0  0.22453  0.93964  0.96581  1.0000
  S   S48       1.0  0.23589  0.93172  0.78622  1.0000
  H   H350      1.0  0.42876  0.90249  0.66956  1.0000
  C   C198      1.0  0.43148  0.81981  0.79969  1.0000
  C   C199      1.0  0.32668  0.81108  0.86454  1.0000
  H   H351      1.0  0.31486  0.81733  0.80412  1.0000
  C   C200      1.0  0.20564  0.79737  0.87307  1.0000
  H   H352      1.0  0.29418  0.89789  0.91594  1.0000
  H   H353      1.0  0.28323  0.93108  0.96522  1.0000
  S   S49       1.0  0.24131  0.83245  0.95853  1.0000
  H   H354      1.0  0.38858  0.84919  0.75706  1.0000
  H   H355      1.0  0.21920  0.83625  0.68428  1.0000
  H   H356      1.0  0.30360  0.80600  0.66004  1.0000
  H   H357      1.0  0.73002  0.08678  0.03659  1.0000
  Fe  Fe25      1.0  0.80805  0.12368  0.23776  1.0000
  S   S50       1.0  0.78838  0.17474  0.24135  1.0000
  S   S51       1.0  0.86682  0.13546  0.20912  1.0000
  Fe  Fe26      1.0  0.73943  0.06421  0.28490  1.0000
  Fe  Fe27      1.0  0.71848  0.11929  0.24152  1.0000
  S   S52       1.0  0.67182  0.12299  0.20758  1.0000
  Fe  Fe28      1.0  0.78776  0.16423  0.29047  1.0000
  S   S53       1.0  0.73816  0.06771  0.23473  1.0000
  S   S54       1.0  0.81077  0.11528  0.28724  1.0000
  C   C201      1.0  0.62032  0.12031  0.21286  1.0000
  C   C202      1.0  0.59795  0.12337  0.18790  1.0000
  C   C203      1.0  0.55740  0.12207  0.19096  1.0000
  C   C204      1.0  0.60151  0.11592  0.24101  1.0000
  H   H358      1.0  0.61202  0.12661  0.16600  1.0000
  C   C205      1.0  0.51591  0.26459  0.25320  1.0000
  H   H359      1.0  0.61815  0.11349  0.26043  1.0000
  C   C206      1.0  0.94480  0.24814  0.14257  1.0000
  C   C207      1.0  0.90890  0.24570  0.15810  1.0000
  C   C208      1.0  0.88599  0.21269  0.17955  1.0000
  C   C209      1.0  0.89743  0.18048  0.18474  1.0000
  C   C210      1.0  0.93374  0.18334  0.16959  1.0000
  C   C211      1.0  0.95767  0.21727  0.14896  1.0000
  H   H360      1.0  0.89842  0.26916  0.15321  1.0000
  H   H361      1.0  0.85871  0.21142  0.19147  1.0000
  H   H362      1.0  0.94299  0.15867  0.17343  1.0000
  C   C212      1.0  0.52570  0.24568  0.22498  1.0000
  C   C213      1.0  0.56108  0.11486  0.24408  1.0000
  C   C214      1.0  0.53873  0.11798  0.21915  1.0000
  H   H363      1.0  0.55807  0.19949  0.24765  1.0000
  C   C215      1.0  0.64724  0.37926  0.24193  1.0000
  H   H364      1.0  0.81233  0.14241  0.06462  1.0000
  C   C216      1.0  0.55654  0.35271  0.01854  1.0000
  C   C217      1.0  0.82881  0.14357  0.08583  1.0000
  H   H365      1.0  0.67342  0.38904  0.22491  1.0000
  H   H366      1.0  0.60424  0.23459  0.18775  1.0000
  C   C218      1.0  0.57255  0.23354  0.19121  1.0000
  H   H367      1.0  0.54738  0.19808  0.19192  1.0000
  C   C219      1.0  0.77440  0.03944  0.16674  1.0000
  S   S55       1.0  0.71614  0.11344  0.29149  1.0000
  H   H368      1.0  0.88588  0.20782  0.07681  1.0000
  H   H369      1.0  0.88902  0.16189  0.06165  1.0000
  H   H370      1.0  0.82302  0.11018  0.09027  1.0000
  C   C220      1.0  0.57739  0.34421  0.04554  1.0000
  C   C221      1.0  0.73523  0.10105  0.09878  1.0000
  H   H371      1.0  0.53672  0.32095  0.00694  1.0000
  H   H372      1.0  0.95318  0.27986  0.26029  1.0000
  C   C222      1.0  0.70567  0.09461  0.04629  1.0000
  H   H373      1.0  0.93804  0.30186  0.21445  1.0000
  C   C223      1.0  0.60354  0.30423  0.21768  1.0000
  H   H374      1.0  0.59902  0.33124  0.03847  1.0000
  H   H375      1.0  0.94433  0.23956  0.23351  1.0000
  H   H376      1.0  0.76786  0.05096  0.12120  1.0000
  H   H377      1.0  0.89812  0.18570  0.27263  1.0000
  C   C224      1.0  0.58403  0.23438  0.24491  1.0000
  H   H378      1.0  0.51465  0.25826  0.20634  1.0000
  H   H379      1.0  0.92241  0.18216  0.30695  1.0000
  H   H380      1.0  0.89625  0.17294  0.10092  1.0000
  H   H381      1.0  0.59921  0.32180  0.26475  1.0000
  N   N12       1.0  0.76570  0.13089  0.12259  1.0000
  H   H382      1.0  0.69983  0.13276  0.08139  1.0000
  C   C225      1.0  0.76603  0.10315  0.14812  1.0000
  C   C226      1.0  0.74675  0.15841  0.13414  1.0000
  C   C227      1.0  0.81166  0.16104  0.11130  1.0000
  H   H383      1.0  0.70336  0.07655  0.10890  1.0000
  H   H384      1.0  0.67560  0.06362  0.05245  1.0000
  C   C228      1.0  0.77116  0.18930  0.16053  1.0000
  H   H385      1.0  0.53174  0.30081  0.25141  1.0000
  H   H386      1.0  0.59427  0.28664  0.15813  1.0000
  C   C229      1.0  0.96800  0.26113  0.25075  1.0000
  H   H387      1.0  0.55710  0.43842  0.01483  1.0000
  C   C230      1.0  0.75464  0.22141  0.16654  1.0000
  H   H388      1.0  0.81938  0.09030  0.13783  1.0000
  H   H389      1.0  0.62370  0.38958  0.23452  1.0000
  C   C231      1.0  0.87794  0.17348  0.08105  1.0000
  H   H390      1.0  0.73249  0.08389  0.15782  1.0000
  H   H391      1.0  0.71200  0.13696  0.14124  1.0000
  H   H392      1.0  0.74629  0.17996  0.11627  1.0000
  H   H393      1.0  0.81515  0.19248  0.10298  1.0000
  H   H394      1.0  0.83529  0.17084  0.13000  1.0000
  H   H395      1.0  0.69702  0.11163  0.02912  1.0000
  H   H396      1.0  0.62342  0.20794  0.22557  1.0000
  C   C232      1.0  0.50065  0.43969  0.99908  1.0000
  H   H397      1.0  0.75416  0.15507  0.06648  1.0000
  H   H398      1.0  0.80677  0.20883  0.15616  1.0000
  H   H399      1.0  0.76543  0.16975  0.18099  1.0000
  C   C233      1.0  0.62795  0.23458  0.24104  1.0000
  H   H400      1.0  0.94839  0.37132  0.19427  1.0000
  H   H401      1.0  0.58732  0.32020  0.20597  1.0000
  H   H402      1.0  0.67379  0.22369  0.26655  1.0000
  N   N13       1.0  0.57221  0.25552  0.22017  1.0000
  H   H403      1.0  0.55124  0.31937  0.06008  1.0000
  C   C234      1.0  0.85587  0.49322  0.05428  1.0000
  H   H404      1.0  0.58474  0.24951  0.26669  1.0000
  C   C235      1.0  0.64402  0.22629  0.27051  1.0000
  H   H405      1.0  0.55640  0.23948  0.11484  1.0000
  H   H406      1.0  0.54069  0.12440  0.17154  1.0000
  H   H407      1.0  0.77086  0.24107  0.18671  1.0000
  H   H408      1.0  0.76230  0.24413  0.14747  1.0000
  H   H409      1.0  0.71874  0.20344  0.17050  1.0000
  H   H410      1.0  0.50322  0.20944  0.22531  1.0000
  C   C236      1.0  0.96797  0.23100  0.27589  1.0000
  C   C237      1.0  0.56129  0.22482  0.13529  1.0000
  S   S56       1.0  0.96803  0.28521  0.11224  1.0000
  H   H411      1.0  0.53409  0.36383  0.02706  1.0000
  C   C238      1.0  0.56581  0.25349  0.16221  1.0000
  H   H412      1.0  0.54705  0.11171  0.26600  1.0000
  H   H413      1.0  0.66247  0.39663  0.26300  1.0000
  H   H414      1.0  0.61695  0.37829  0.99366  1.0000
  H   H415      1.0  0.91315  0.22757  0.30081  1.0000
  H   H416      1.0  0.63203  0.31053  0.20343  1.0000
  H   H417      1.0  0.60888  0.41922  0.01030  1.0000
  C   C239      1.0  0.62379  0.32970  0.24702  1.0000
  H   H418      1.0  0.59656  0.37484  0.05857  1.0000
  H   H419      1.0  0.98465  0.21815  0.13680  1.0000
  C   C240      1.0  0.78335  0.07129  0.14111  1.0000
  C   C241      1.0  0.92262  0.20508  0.28994  1.0000
  H   H420      1.0  0.64830  0.32153  0.25568  1.0000
  H   H421      1.0  0.53624  0.25675  0.16286  1.0000
  H   H422      1.0  0.78718  0.12417  0.16651  1.0000
  H   H423      1.0  0.74802  0.08113  0.08831  1.0000
  H   H424      1.0  0.59111  0.22200  0.13243  1.0000
  H   H425      1.0  0.52697  0.25562  0.27367  1.0000
  C   C242      1.0  0.59165  0.38789  0.99763  1.0000
  C   C243      1.0  0.72464  0.12427  0.07350  1.0000
  H   H426      1.0  0.65395  0.26605  0.23171  1.0000
  H   H427      1.0  0.85601  0.49887  0.07861  1.0000
  H   H428      1.0  0.61859  0.19502  0.28059  1.0000
  H   H429      1.0  0.65228  0.25364  0.28631  1.0000
  H   H430      1.0  0.53246  0.19141  0.13795  1.0000
  S   S57       1.0  0.83003  0.22676  0.31592  1.0000
  C   C244      1.0  0.97468  0.36295  0.19142  1.0000
  H   H431      1.0  0.50743  0.46827  0.01329  1.0000
  S   S58       1.0  0.70358  0.00210  0.31393  1.0000
  H   H432      1.0  0.78711  0.01709  0.16100  1.0000
  H   H433      1.0  0.97641  0.20665  0.26703  1.0000
  H   H434      1.0  0.84412  0.45782  0.05049  1.0000
  H   H435      1.0  0.79118  0.05756  0.18720  1.0000
  H   H436      1.0  0.73872  0.01933  0.17116  1.0000
  H   H437      1.0  0.99131  0.25035  0.29376  1.0000
  H   H438      1.0  0.84476  0.02974  0.31639  1.0000
  H   H439      1.0  0.97394  0.34729  0.23761  1.0000
  C   C245      1.0  0.97120  0.33127  0.21591  1.0000
  H   H440      1.0  0.97105  0.34771  0.16914  1.0000
  Fe  Fe29      1.0  0.91052  0.24035  0.54340  1.0000
  S   S59       1.0  0.87113  0.27197  0.53101  1.0000
  S   S60       1.0  0.89366  0.19266  0.58280  1.0000
  H   H441      1.0  0.55972  0.39848  0.40265  1.0000
  S   S61       1.0  0.94549  0.32779  0.47877  1.0000
  Fe  Fe30      1.0  0.93426  0.33651  0.52728  1.0000
  S   S62       1.0  0.95275  0.40004  0.55324  1.0000
  Fe  Fe31      1.0  0.88549  0.26060  0.48400  1.0000
  S   S63       1.0  0.82505  0.22142  0.45630  1.0000
  S   S64       1.0  0.97321  0.30550  0.54301  1.0000
  S   S65       1.0  0.92250  0.22625  0.49653  1.0000
  H   H442      1.0  0.80439  0.06189  0.64468  1.0000
  H   H443      1.0  0.71883  0.07503  0.35404  1.0000
  C   C246      1.0  0.93863  0.44240  0.55232  1.0000
  H   H444      1.0  0.81189  0.02306  0.36644  1.0000
  C   C247      1.0  0.88014  0.15994  0.38367  1.0000
  C   C248      1.0  0.91292  0.44536  0.52983  1.0000
  C   C249      1.0  0.81099  0.09241  0.39394  1.0000
  H   H445      1.0  0.97387  0.47237  0.59267  1.0000
  C   C250      1.0  0.82669  0.22444  0.41736  1.0000
  C   C251      1.0  0.79048  0.19325  0.40125  1.0000
  C   C252      1.0  0.79102  0.19371  0.37005  1.0000
  C   C253      1.0  0.82768  0.22565  0.35490  1.0000
  C   C254      1.0  0.86341  0.25756  0.37100  1.0000
  C   C255      1.0  0.86319  0.25680  0.40223  1.0000
  H   H446      1.0  0.76193  0.16868  0.41299  1.0000
  H   H447      1.0  0.76292  0.16968  0.35772  1.0000
  H   H448      1.0  0.89145  0.28249  0.35915  1.0000
  H   H449      1.0  0.89099  0.28123  0.41457  1.0000
  C   C256      1.0  0.84355  0.14447  0.59265  1.0000
  C   C257      1.0  0.84310  0.11863  0.61672  1.0000
  C   C258      1.0  0.80399  0.08115  0.62609  1.0000
  H   H450      1.0  0.87328  0.12780  0.62832  1.0000
  N   N14       1.0  0.89055  0.30206  0.63394  1.0000
  H   H451      1.0  0.93640  0.28162  0.64826  1.0000
  C   C259      1.0  0.93236  0.30054  0.63001  1.0000
  C   C260      1.0  0.84801  0.03970  0.36440  1.0000
  C   C261      1.0  0.84132  0.35705  0.58371  1.0000
  H   H452      1.0  0.79581  0.05878  0.40355  1.0000
  H   H453      1.0  0.73395  0.09462  0.39143  1.0000
  H   H454      1.0  0.65953  0.07898  0.61781  1.0000
  H   H455      1.0  0.77431  0.01487  0.55250  1.0000
  H   H456      1.0  0.86078  0.02953  0.38346  1.0000
  H   H457      1.0  0.94629  0.18212  0.40192  1.0000
  H   H458      1.0  0.88379  0.48208  0.51229  1.0000
  H   H459      1.0  0.53218  0.33904  0.40238  1.0000
  H   H460      1.0  0.89229  0.31421  0.58679  1.0000
  H   H461      1.0  0.81635  0.28968  0.59531  1.0000
  H   H462      1.0  0.80483  0.11231  0.41054  1.0000
  H   H463      1.0  0.93080  0.28267  0.60907  1.0000
  H   H464      1.0  0.85061  0.24090  0.61032  1.0000
  C   C262      1.0  0.62813  0.09315  0.65551  1.0000
  H   H465      1.0  0.60739  0.09811  0.63911  1.0000
  C   C263      1.0  0.73656  0.07367  0.37397  1.0000
  C   C264      1.0  0.93092  0.18579  0.38150  1.0000
  H   H466      1.0  0.94239  0.17445  0.36223  1.0000
  H   H467      1.0  0.97304  0.33249  0.37168  1.0000
  C   C265      1.0  0.76497  0.09479  0.58749  1.0000
  H   H468      1.0  0.85949  0.09960  0.34216  1.0000
  H   H469      1.0  0.92886  0.12341  0.46922  1.0000
  H   H470      1.0  0.78467  0.06646  0.34932  1.0000
  H   H471      1.0  0.80808  0.35279  0.58143  1.0000
  H   H472      1.0  0.85289  0.35383  0.56132  1.0000
  H   H473      1.0  0.84278  0.11906  0.45105  1.0000
  H   H474      1.0  0.84728  0.03586  0.59746  1.0000
  H   H475      1.0  0.86996  0.17582  0.40095  1.0000
  H   H476      1.0  0.85974  0.06701  0.42264  1.0000
  H   H477      1.0  0.91055  0.36151  0.60838  1.0000
  H   H478      1.0  0.72046  0.03916  0.38187  1.0000
  H   H479      1.0  0.67708  0.15684  0.61308  1.0000
  C   C266      1.0  0.69679  0.14754  0.62738  1.0000
  C   C267      1.0  0.94830  0.23480  0.37707  1.0000
  H   H480      1.0  0.94072  0.24888  0.39684  1.0000
  C   C268      1.0  0.85910  0.02283  0.33619  1.0000
  H   H481      1.0  0.80370  0.15152  0.55952  1.0000
  H   H482      1.0  0.86788  0.16582  0.36241  1.0000
  C   C269      1.0  0.54366  0.36876  0.38834  1.0000
  C   C270      1.0  0.85509  0.22312  0.65568  1.0000
  C   C271      1.0  0.83990  0.32232  0.60474  1.0000
  H   H483      1.0  0.97528  0.36663  0.61136  1.0000
  C   C272      1.0  0.87666  0.12690  0.44574  1.0000
  H   H484      1.0  0.73475  0.08598  0.57608  1.0000
  H   H485      1.0  0.56827  0.36994  0.37230  1.0000
  H   H486      1.0  0.98179  0.37831  0.41605  1.0000
  H   H487      1.0  0.54109  0.03660  0.65086  1.0000
  C   C273      1.0  0.76452  0.06904  0.61161  1.0000
  H   H488      1.0  0.87833  0.21261  0.64768  1.0000
  C   C274      1.0  0.85309  0.25523  0.63292  1.0000
  Fe  Fe32      1.0  0.98192  0.29398  0.49470  1.0000
  H   H489      1.0  0.98074  0.36202  0.65108  1.0000
  C   C275      1.0  0.66925  0.10010  0.63791  1.0000
  S   S66       1.0  0.71363  0.02280  0.62269  1.0000
  H   H490      1.0  0.76673  0.48189  0.42421  1.0000
  H   H491      1.0  0.58158  0.03024  0.61383  1.0000
  N   N15       1.0  0.85958  0.11131  0.38951  1.0000
  H   H492      1.0  0.90069  0.42123  0.51218  1.0000
  H   H493      1.0  0.90484  0.10319  0.36134  1.0000
  C   C276      1.0  0.87804  0.10262  0.41721  1.0000
  H   H494      1.0  0.89712  0.16298  0.44318  1.0000
  C   C277      1.0  0.78436  0.08971  0.36590  1.0000
  C   C278      1.0  0.97465  0.36475  0.36945  1.0000
  H   H495      1.0  0.93931  0.39155  0.65343  1.0000
  H   H496      1.0  0.82706  0.32564  0.62656  1.0000
  H   H497      1.0  0.86346  0.39054  0.59248  1.0000
  C   C279      1.0  0.95399  0.47420  0.57511  1.0000
  C   C280      1.0  0.86908  0.09038  0.36336  1.0000
  H   H498      1.0  0.87454  0.07742  0.47611  1.0000
  H   H499      1.0  0.89107  0.12984  0.49289  1.0000
  H   H500      1.0  0.91240  0.11037  0.41350  1.0000
  C   C281      1.0  0.80412  0.13208  0.57799  1.0000
  H   H501      1.0  0.79709  0.16618  0.63777  1.0000
  C   C282      1.0  0.89388  0.11344  0.47252  1.0000
  H   H502      1.0  0.93378  0.24057  0.35693  1.0000
  H   H503      1.0  0.98435  0.25196  0.37412  1.0000
  C   C283      1.0  0.50541  0.36722  0.37144  1.0000
  C   C284      1.0  0.81042  0.18183  0.65961  1.0000
  C   C285      1.0  0.88554  0.32621  0.60793  1.0000
  H   H504      1.0  0.79776  0.12207  0.35505  1.0000
  C   C286      1.0  0.97542  0.34519  0.62936  1.0000
  C   C287      1.0  0.90335  0.47998  0.52997  1.0000
  H   H505      1.0  0.88410  0.38025  0.65281  1.0000
  H   H506      1.0  0.72502  0.15103  0.61411  1.0000
  H   H507      1.0  0.82144  0.25428  0.63677  1.0000
  H   H508      1.0  0.51906  0.39655  0.35687  1.0000
  H   H509      1.0  0.85237  0.06538  0.56339  1.0000
  H   H510      1.0  0.99038  0.37994  0.34792  1.0000
  H   H511      1.0  0.69062  0.09202  0.65116  1.0000
  H   H512      1.0  0.70723  0.00504  0.55582  1.0000
  H   H513      1.0  0.94077  0.35925  0.36936  1.0000
  C   C288      1.0  0.60249  0.01213  0.65573  1.0000
  H   H514      1.0  0.88809  0.04346  0.57024  1.0000
  H   H515      1.0  0.70955  0.17022  0.64668  1.0000
  H   H516      1.0  0.63613  0.01745  0.65407  1.0000
  C   C289      1.0  0.85424  0.03738  0.57324  1.0000
  C   C290      1.0  0.58383  0.00246  0.62351  1.0000
  H   H517      1.0  0.89508  0.03846  0.33320  1.0000
  H   H518      1.0  0.54895  0.06674  0.71585  1.0000
  C   C291      1.0  0.53635  0.46913  0.91143  1.0000
  C   C292      1.0  0.61065  0.43536  0.95372  1.0000
  C   C293      1.0  0.56086  0.45684  0.86410  1.0000
  H   H519      1.0  0.52363  0.40498  0.95130  1.0000
  H   H520      1.0  0.55491  0.43700  0.84436  1.0000
  H   H521      1.0  0.56579  0.47099  0.98201  1.0000
  H   H522      1.0  0.51110  0.45974  0.92809  1.0000
  N   N16       1.0  0.60190  0.04981  0.67149  1.0000
  C   C294      1.0  0.54490  0.07018  0.69171  1.0000
  H   H523      1.0  0.67501  0.04385  0.69294  1.0000
  C   C295      1.0  0.52831  0.44263  0.88632  1.0000
  H   H524      1.0  0.53428  0.00516  0.68335  1.0000
  H   H525      1.0  0.61543  0.07818  0.71576  1.0000
  H   H526      1.0  0.90832  0.31475  0.68043  1.0000
  C   C296      1.0  0.61814  0.05263  0.70289  1.0000
  H   H527      1.0  0.66861  0.47900  0.90680  1.0000
  C   C297      1.0  0.55092  0.35793  0.91637  1.0000
  H   H528      1.0  0.53136  0.31937  0.87585  1.0000
  C   C298      1.0  0.67623  0.05945  0.73897  1.0000
  H   H529      1.0  0.67012  0.08119  0.75379  1.0000
  H   H530      1.0  0.93579  0.38398  0.70869  1.0000
  H   H531      1.0  0.56689  0.10479  0.68505  1.0000
  H   H532      1.0  0.58748  0.34482  0.94951  1.0000
  H   H533      1.0  0.71105  0.06828  0.74111  1.0000
  C   C299      1.0  0.91151  0.38913  0.69632  1.0000
  H   H534      1.0  0.59769  0.44426  0.93404  1.0000
  H   H535      1.0  0.53211  0.32563  0.95865  1.0000
  H   H536      1.0  0.65548  0.02482  0.74628  1.0000
  C   C300      1.0  0.56177  0.35439  0.94928  1.0000
  C   C301      1.0  0.65212  0.43377  0.94412  1.0000
  C   C302      1.0  0.54085  0.31657  0.89892  1.0000
  H   H537      1.0  0.57009  0.31246  0.89793  1.0000
  H   H538      1.0  0.57818  0.38607  0.90473  1.0000
  H   H539      1.0  0.52179  0.36181  0.91519  1.0000
  C   C303      1.0  0.66650  0.06471  0.70663  1.0000
  H   H540      1.0  0.68842  0.09958  0.70047  1.0000
  H   H541      1.0  0.51327  0.28702  0.90928  1.0000
  C   C304      1.0  0.68394  0.47562  0.92744  1.0000
  H   H542      1.0  0.64418  0.40569  0.92915  1.0000
  H   H543      1.0  0.63866  0.12080  0.67155  1.0000
  H   H544      1.0  0.87947  0.37200  0.70801  1.0000
  C   C305      1.0  0.55456  0.03841  0.67344  1.0000
  H   H545      1.0  0.86608  0.23861  0.67784  1.0000
  H   H546      1.0  0.59710  0.02109  0.71470  1.0000
  N   N17       1.0  0.57495  0.39451  0.96835  1.0000
  H   H547      1.0  0.50749  0.36955  0.98185  1.0000
  H   H548      1.0  0.92293  0.42486  0.69611  1.0000
  H   H549      1.0  0.71377  0.47435  0.92113  1.0000
  H   H550      1.0  0.66929  0.43097  0.96390  1.0000
  C   C306      1.0  0.60119  0.49634  0.86725  1.0000
  H   H551      1.0  0.81376  0.15784  0.67378  1.0000
  H   H552      1.0  0.62233  0.46400  0.96895  1.0000
  C   C307      1.0  0.53559  0.40014  0.97293  1.0000
  H   H553      1.0  0.85575  0.30667  0.67260  1.0000
  C   C308      1.0  0.54315  0.43940  0.99302  1.0000
  H   H554      1.0  0.78702  0.19001  0.67045  1.0000
  C   C309      1.0  0.88974  0.32211  0.66363  1.0000
  C   C310      1.0  0.90708  0.37242  0.66440  1.0000
  C   C311      1.0  0.49759  0.05953  0.68744  1.0000
  C   C312      1.0  0.91891  0.57057  0.04522  1.0000
  C   C313      1.0  0.98266  0.58262  0.01423  1.0000
  H   H555      1.0  0.95137  0.63499  0.00272  1.0000
  H   H556      1.0  0.93819  0.72117  0.04190  1.0000
  H   H557      1.0  0.61024  0.85227  0.28458  1.0000
  H   H558      1.0  0.98151  0.55240  0.02264  1.0000
  H   H559      1.0  0.61081  0.74859  0.25733  1.0000
  H   H560      1.0  0.66615  0.78819  0.28607  1.0000
  C   C314      1.0  0.58512  0.75790  0.25888  1.0000
  H   H561      1.0  0.89672  0.57669  0.03090  1.0000
  C   C315      1.0  0.67794  0.73494  0.32212  1.0000
  H   H562      1.0  0.53321  0.68932  0.26033  1.0000
  H   H563      1.0  0.66262  0.83407  0.25137  1.0000
  H   H564      1.0  0.68996  0.92943  0.26788  1.0000
  H   H565      1.0  0.76720  0.97334  0.30037  1.0000
  H   H566      1.0  0.55428  0.78021  0.28975  1.0000
  H   H567      1.0  0.91153  0.57629  0.06839  1.0000
  H   H568      1.0  0.56202  0.73795  0.30406  1.0000
  N   N18       1.0  0.61912  0.80277  0.30718  1.0000
  C   C316      1.0  0.64089  0.74553  0.32395  1.0000
  H   H569      1.0  0.91763  0.64459  0.05233  1.0000
  C   C317      1.0  0.54289  0.71929  0.24688  1.0000
  C   C318      1.0  0.90191  0.52063  0.04138  1.0000
  H   H570      1.0  0.70368  0.86694  0.27801  1.0000
  C   C319      1.0  0.95132  0.66704  0.04429  1.0000
  C   C320      1.0  0.68013  0.90188  0.25196  1.0000
  H   H571      1.0  0.92313  0.51001  0.05226  1.0000
  C   C321      1.0  0.57871  0.76908  0.29112  1.0000
  H   H572      1.0  0.97281  0.68198  0.06389  1.0000
  H   H573      1.0  0.59358  0.78631  0.24417  1.0000
  H   H574      1.0  0.98401  0.72871  0.01967  1.0000
  H   H575      1.0  0.65012  0.89614  0.24015  1.0000
  C   C322      1.0  0.95055  0.70421  0.02724  1.0000
  C   C323      1.0  0.63732  0.84769  0.29314  1.0000
  H   H576      1.0  0.70681  0.91157  0.23538  1.0000
  H   H577      1.0  0.68553  0.73158  0.29859  1.0000
  N   N19       1.0  0.96646  0.60224  0.03753  1.0000
  H   H578      1.0  0.68323  0.81578  0.32036  1.0000
  C   C324      1.0  0.65402  0.78983  0.30852  1.0000
  H   H579      1.0  0.92878  0.69120  0.00757  1.0000
  C   C325      1.0  0.67208  0.86029  0.26813  1.0000
  C   C326      1.0  0.96896  0.64295  0.02442  1.0000
  H   H580      1.0  0.65420  0.87384  0.31020  1.0000
  H   H581      1.0  0.61165  0.71803  0.31343  1.0000
  H   H582      1.0  0.54799  0.71236  0.22354  1.0000
  H   H583      1.0  0.96976  0.55040  0.08491  1.0000
  H   H584      1.0  0.51591  0.72699  0.24728  1.0000
  H   H585      1.0  0.96066  0.57246  0.99453  1.0000
  H   H586      1.0  0.90022  0.51241  0.01736  1.0000
  H   H587      1.0  0.98023  0.62739  0.08249  1.0000
  C   C327      1.0  0.74845  0.95564  0.31972  1.0000
  C   C328      1.0  0.99450  0.61566  0.06509  1.0000
  H   H588      1.0  0.83282  0.50165  0.04333  1.0000
  H   H589      1.0  0.77876  0.91538  0.32305  1.0000
  S   S67       1.0  0.60970  0.80409  0.62631  1.0000
  Fe  Fe33      1.0  0.63635  0.77806  0.45903  1.0000
  S   S68       1.0  0.70917  0.80743  0.45568  1.0000
  S   S69       1.0  0.60405  0.80827  0.48621  1.0000
  Fe  Fe34      1.0  0.61631  0.70930  0.40993  1.0000
  S   S70       1.0  0.68839  0.73410  0.40308  1.0000
  S   S71       1.0  0.56441  0.66041  0.37752  1.0000
  Fe  Fe35      1.0  0.69437  0.73702  0.45325  1.0000
  S   S72       1.0  0.72014  0.70165  0.48302  1.0000
  Fe  Fe36      1.0  0.69734  0.80256  0.40606  1.0000
  S   S73       1.0  0.73848  0.85590  0.37184  1.0000
  S   S74       1.0  0.62133  0.70807  0.45959  1.0000
  S   S75       1.0  0.62561  0.77749  0.40998  1.0000
  H   H590      1.0  0.63397  0.74681  0.34788  1.0000
  Fe  Fe37      1.0  0.91114  0.69600  0.57726  1.0000
  S   S76       1.0  0.86160  0.62528  0.58264  1.0000
  S   S77       1.0  0.90004  0.73774  0.54291  1.0000
  Fe  Fe38      1.0  0.87213  0.63822  0.63144  1.0000
  Fe  Fe39      1.0  0.91742  0.61133  0.58339  1.0000
  S   S78       1.0  0.90655  0.55557  0.55107  1.0000
  S   S79       1.0  0.91915  0.71035  0.62654  1.0000
  S   S80       1.0  0.96769  0.68252  0.57529  1.0000
  H   H591      1.0  0.75063  0.55090  0.49787  1.0000
  S   S81       1.0  0.81068  0.61510  0.65877  1.0000
  C   C329      1.0  0.72989  0.89818  0.35722  1.0000
  C   C330      1.0  0.53723  0.64714  0.51600  1.0000
  H   H592      1.0  0.82561  0.96780  0.56869  1.0000
  H   H593      1.0  0.50007  0.66125  0.42683  1.0000
  H   H594      1.0  0.51144  0.74872  0.51439  1.0000
  C   C331      1.0  0.69873  0.90763  0.36908  1.0000
  H   H595      1.0  0.81684  0.74499  0.58962  1.0000
  H   H596      1.0  0.75720  0.60101  0.51253  1.0000
  H   H597      1.0  0.67952  0.88948  0.38815  1.0000
  C   C332      1.0  0.77048  0.71474  0.50071  1.0000
  C   C333      1.0  0.81084  0.74989  0.49175  1.0000
  C   C334      1.0  0.85000  0.75669  0.50512  1.0000
  C   C335      1.0  0.84945  0.72870  0.52770  1.0000
  C   C336      1.0  0.80902  0.69398  0.53694  1.0000
  C   C337      1.0  0.76994  0.68708  0.52351  1.0000
  H   H598      1.0  0.81199  0.77138  0.47418  1.0000
  H   H599      1.0  0.88099  0.78370  0.49776  1.0000
  H   H600      1.0  0.80781  0.67232  0.55441  1.0000
  H   H601      1.0  0.73898  0.65987  0.53073  1.0000
  C   C338      1.0  0.61261  0.80953  0.58746  1.0000
  C   C339      1.0  0.59563  0.83293  0.57305  1.0000
  C   C340      1.0  0.59334  0.83240  0.54187  1.0000
  C   C341      1.0  0.60960  0.81002  0.52502  1.0000
  C   C342      1.0  0.62811  0.78800  0.53938  1.0000
  C   C343      1.0  0.62864  0.78691  0.57058  1.0000
  H   H602      1.0  0.58268  0.84993  0.58598  1.0000
  H   H603      1.0  0.57892  0.84936  0.53075  1.0000
  H   H604      1.0  0.64077  0.77070  0.52648  1.0000
  H   H605      1.0  0.64139  0.76838  0.58169  1.0000
  H   H606      1.0  0.74776  0.92457  0.45437  1.0000
  H   H607      1.0  0.68972  0.89680  0.44794  1.0000
  H   H608      1.0  0.76819  0.54871  0.44258  1.0000
  C   C344      1.0  0.69548  0.93733  0.55646  1.0000
  S   S82       1.0  0.92352  0.61824  0.63330  1.0000
  H   H609      1.0  0.70501  0.88142  0.49814  1.0000
  C   C345      1.0  0.80879  0.74373  0.63753  1.0000
  H   H610      1.0  0.67564  0.91098  0.49897  1.0000
  C   C346      1.0  0.69187  0.94016  0.35593  1.0000
  H   H611      1.0  0.84554  0.98684  0.33787  1.0000
  H   H612      1.0  0.81254  0.77699  0.63702  1.0000
  H   H613      1.0  0.91726  0.62065  0.48834  1.0000
  H   H614      1.0  0.77569  0.95148  0.50605  1.0000
  H   H615      1.0  0.79756  0.68126  0.39728  1.0000
  H   H616      1.0  0.53952  0.64615  0.49143  1.0000
  C   C347      1.0  0.52836  0.68439  0.52570  1.0000
  H   H617      1.0  0.77116  0.53490  0.54876  1.0000
  H   H618      1.0  0.61306  0.92960  0.54681  1.0000
  Fe  Fe40      1.0  0.68815  0.96519  0.65595  1.0000
  C   C348      1.0  0.74487  0.95026  0.51322  1.0000
  H   H619      1.0  0.60779  0.68706  0.52340  1.0000
  H   H620      1.0  0.83139  0.99667  0.53442  1.0000
  H   H621      1.0  0.54423  0.84166  0.37876  1.0000
  H   H622      1.0  0.50073  0.79811  0.55120  1.0000
  H   H623      1.0  0.52526  0.60082  0.42877  1.0000
  H   H624      1.0  0.58763  0.62904  0.52014  1.0000
  C   C349      1.0  0.63813  0.96070  0.55721  1.0000
  H   H625      1.0  0.66691  0.94636  0.36487  1.0000
  H   H626      1.0  0.63565  0.82468  0.35266  1.0000
  H   H627      1.0  0.85411  0.59645  0.43692  1.0000
  H   H628      1.0  0.59597  0.84702  0.38903  1.0000
  Fe  Fe41      1.0  0.63126  0.86507  0.65405  1.0000
  C   C350      1.0  0.91445  0.64873  0.49690  1.0000
  H   H629      1.0  0.55511  0.71565  0.51652  1.0000
  C   C351      1.0  0.70782  0.91383  0.49411  1.0000
  C   C352      1.0  0.83153  0.73942  0.60976  1.0000
  N   N20       1.0  0.73937  0.94439  0.54651  1.0000
  C   C353      1.0  0.94409  0.50859  0.57540  1.0000
  C   C354      1.0  0.74261  0.90455  0.55490  1.0000
  C   C355      1.0  0.82187  0.99424  0.55816  1.0000
  C   C356      1.0  0.74014  0.89457  0.58861  1.0000
  C   C357      1.0  0.71676  0.92341  0.46089  1.0000
  C   C358      1.0  0.74923  0.85709  0.59472  1.0000
  H   H630      1.0  0.78697  0.69193  0.43471  1.0000
  H   H631      1.0  0.86699  0.76406  0.60989  1.0000
  H   H632      1.0  0.77373  0.71863  0.63576  1.0000
  H   H633      1.0  0.77291  0.90672  0.54554  1.0000
  H   H634      1.0  0.71533  0.87445  0.54481  1.0000
  H   H635      1.0  0.66919  0.90482  0.54897  1.0000
  H   H636      1.0  0.69323  0.93629  0.58119  1.0000
  H   H637      1.0  0.75403  0.63806  0.41855  1.0000
  H   H638      1.0  0.70674  0.88406  0.59704  1.0000
  H   H639      1.0  0.76405  0.92348  0.60153  1.0000
  H   H640      1.0  0.82748  0.70600  0.60835  1.0000
  H   H641      1.0  0.95982  0.71809  0.50534  1.0000
  H   H642      1.0  0.72573  0.82702  0.58249  1.0000
  H   H643      1.0  0.78312  0.86646  0.58797  1.0000
  H   H644      1.0  0.74541  0.84953  0.61889  1.0000
  H   H645      1.0  0.53290  0.68782  0.55024  1.0000
  C   C359      1.0  0.51682  0.60756  0.38212  1.0000
  H   H646      1.0  0.85671  0.57020  0.46960  1.0000
  C   C360      1.0  0.79857  0.51215  0.42818  1.0000
  H   H647      1.0  0.50927  0.73704  0.46613  1.0000
  C   C361      1.0  0.77436  0.98540  0.56144  1.0000
  S   S83       1.0  0.61583  0.91931  0.64845  1.0000
  H   H648      1.0  0.52219  0.74224  0.56659  1.0000
  H   H649      1.0  0.95638  0.53279  0.59301  1.0000
  C   C362      1.0  0.79269  0.54074  0.45135  1.0000
  H   H650      1.0  0.57772  0.65094  0.55374  1.0000
  H   H651      1.0  0.72183  0.53837  0.54794  1.0000
  H   H652      1.0  0.60679  0.99785  0.60894  1.0000
  C   C363      1.0  0.96009  0.68922  0.49544  1.0000
  Fe  Fe42      1.0  0.97112  0.69070  0.62541  1.0000
  C   C364      1.0  0.57612  0.82600  0.34324  1.0000
  N   N21       1.0  0.83511  0.61732  0.47684  1.0000
  C   C365      1.0  0.80687  0.63364  0.46305  1.0000
  C   C366      1.0  0.81949  0.60123  0.50813  1.0000
  C   C367      1.0  0.88116  0.65594  0.47869  1.0000
  C   C368      1.0  0.83680  0.58234  0.45829  1.0000
  C   C369      1.0  0.76931  0.57735  0.51403  1.0000
  C   C370      1.0  0.81989  0.65336  0.43140  1.0000
  H   H653      1.0  0.63586  0.95695  0.58177  1.0000
  H   H654      1.0  0.54143  0.93172  0.62842  1.0000
  H   H655      1.0  0.81037  0.53003  0.40677  1.0000
  C   C371      1.0  0.78756  0.66688  0.41985  1.0000
  H   H656      1.0  0.54301  0.71213  0.46788  1.0000
  H   H657      1.0  0.80685  0.65936  0.47759  1.0000
  H   H658      1.0  0.77215  0.60739  0.46185  1.0000
  H   H659      1.0  0.83231  0.57961  0.51578  1.0000
  H   H660      1.0  0.83324  0.62957  0.52377  1.0000
  H   H661      1.0  0.88078  0.68490  0.48854  1.0000
  H   H662      1.0  0.89559  0.66629  0.45611  1.0000
  C   C372      1.0  0.60595  0.80547  0.33881  1.0000
  C   C373      1.0  0.56553  0.82690  0.37615  1.0000
  H   H663      1.0  0.59213  0.86035  0.33511  1.0000
  C   C374      1.0  0.58019  0.65409  0.52915  1.0000
  H   H664      1.0  0.85265  0.68331  0.43139  1.0000
  H   H665      1.0  0.82001  0.62915  0.41557  1.0000
  H   H666      1.0  0.51429  0.96305  0.63506  1.0000
  H   H667      1.0  0.90478  0.64250  0.52066  1.0000
  C   C375      1.0  0.75792  0.55735  0.54515  1.0000
  H   H668      1.0  0.58808  0.77220  0.34899  1.0000
  H   H669      1.0  0.54806  0.79312  0.38541  1.0000
  H   H670      1.0  0.51102  0.61462  0.52367  1.0000
  C   C376      1.0  0.91887  0.51194  0.55269  1.0000
  H   H671      1.0  0.98338  0.68303  0.50819  1.0000
  H   H672      1.0  0.49874  0.60337  0.33599  1.0000
  H   H673      1.0  0.63124  0.98723  0.55107  1.0000
  H   H674      1.0  0.77125  0.58360  0.56229  1.0000
  C   C377      1.0  0.53915  0.96070  0.62123  1.0000
  H   H675      1.0  0.77985  0.52051  0.47174  1.0000
  H   H676      1.0  0.76724  0.98543  0.58562  1.0000
  C   C378      1.0  0.71666  0.96445  0.33117  1.0000
  C   C379      1.0  0.75477  0.92256  0.33256  1.0000
  H   H677      1.0  0.74877  0.98247  0.50647  1.0000
  H   H678      1.0  0.52398  0.71790  0.41636  1.0000
  C   C380      1.0  0.68385  0.97247  0.54642  1.0000
  H   H679      1.0  0.70782  0.76116  0.33307  1.0000
  H   H680      1.0  0.97181  0.69672  0.47209  1.0000
  H   H681      1.0  0.52803  0.95551  0.59776  1.0000
  C   C381      1.0  0.50493  0.58573  0.40951  1.0000
  C   C382      1.0  0.49918  0.69192  0.43097  1.0000
  C   C383      1.0  0.50957  0.70579  0.46350  1.0000
  H   H682      1.0  0.66790  0.70345  0.33374  1.0000
  H   H683      1.0  0.54464  0.80673  0.33140  1.0000
  S   S84       1.0  0.70358  0.91024  0.65807  1.0000
  H   H684      1.0  0.71863  0.95501  0.45513  1.0000
  H   H685      1.0  0.68425  0.97538  0.52188  1.0000
  H   H686      1.0  0.82231  0.50237  0.43614  1.0000
  Fe  Fe43      1.0  0.68930  0.90579  0.70725  1.0000
  S   S85       1.0  0.61745  0.85832  0.70325  1.0000
  S   S86       1.0  0.73330  0.89643  0.74054  1.0000
  C   C384      1.0  0.82977  0.73810  0.66610  1.0000
  H   H687      1.0  0.92055  0.78806  0.85524  1.0000
  Fe  Fe44      1.0  0.60824  0.91722  0.69824  1.0000
  S   S87       1.0  0.56022  0.92931  0.72634  1.0000
  C   C385      1.0  0.83262  0.72959  0.71964  1.0000
  S   S88       1.0  0.68001  0.96524  0.70577  1.0000
  C   C386      1.0  0.73783  0.68671  0.72550  1.0000
  Fe  Fe45      1.0  0.72006  0.61834  0.87056  1.0000
  S   S89       1.0  0.74365  0.69050  0.87729  1.0000
  S   S90       1.0  0.66036  0.57128  0.89903  1.0000
  Fe  Fe46      1.0  0.79340  0.64055  0.82513  1.0000
  S   S91       1.0  0.81937  0.71297  0.82772  1.0000
  S   S92       1.0  0.83540  0.62187  0.79805  1.0000
  Fe  Fe47      1.0  0.81230  0.70042  0.87718  1.0000
  S   S93       1.0  0.86940  0.74566  0.90754  1.0000
  Fe  Fe48      1.0  0.74879  0.69637  0.82726  1.0000
  S   S94       1.0  0.71080  0.71806  0.79653  1.0000
  S   S95       1.0  0.78844  0.62838  0.87440  1.0000
  S   S96       1.0  0.72341  0.62382  0.82077  1.0000
  H   H688      1.0  0.63697  0.53112  0.79465  1.0000
  H   H689      1.0  0.89615  0.72366  0.75210  1.0000
  C   C387      1.0  0.82805  0.61985  0.75942  1.0000
  C   C388      1.0  0.86325  0.62858  0.74060  1.0000
  C   C389      1.0  0.85824  0.62731  0.70962  1.0000
  C   C390      1.0  0.81753  0.61581  0.69741  1.0000
  C   C391      1.0  0.78201  0.60605  0.71624  1.0000
  C   C392      1.0  0.78746  0.60889  0.74723  1.0000
  H   H690      1.0  0.89455  0.63664  0.74997  1.0000
  H   H691      1.0  0.88572  0.63478  0.69519  1.0000
  H   H692      1.0  0.75035  0.59666  0.70685  1.0000
  H   H693      1.0  0.76006  0.60157  0.76168  1.0000
  H   H694      1.0  0.67320  0.64804  0.74441  1.0000
  H   H695      1.0  0.93693  0.64731  0.87826  1.0000
  H   H696      1.0  0.81864  0.73008  0.74181  1.0000
  C   C393      1.0  0.71876  0.76825  0.78081  1.0000
  C   C394      1.0  0.68806  0.76652  0.76009  1.0000
  C   C395      1.0  0.69196  0.80518  0.74756  1.0000
  C   C396      1.0  0.72675  0.84637  0.75558  1.0000
  C   C397      1.0  0.75781  0.84804  0.77597  1.0000
  C   C398      1.0  0.75396  0.80934  0.78846  1.0000
  H   H697      1.0  0.66093  0.73508  0.75369  1.0000
  H   H698      1.0  0.66796  0.80314  0.73177  1.0000
  H   H699      1.0  0.78496  0.87960  0.78232  1.0000
  H   H700      1.0  0.77789  0.81142  0.80432  1.0000
  C   C399      1.0  0.90948  0.73429  0.92258  1.0000
  C   C400      1.0  0.95017  0.66338  0.83038  1.0000
  C   C401      1.0  0.93670  0.68443  0.93412  1.0000
  C   C402      1.0  0.90451  0.69223  0.92168  1.0000
  H   H701      1.0  0.93223  0.65168  0.93343  1.0000
  H   H702      1.0  0.87555  0.66558  0.91172  1.0000
  H   H703      1.0  0.89349  0.64925  0.85863  1.0000
  H   H704      1.0  0.82920  0.69650  0.71748  1.0000
  N   N22       1.0  0.57609  0.60232  0.81995  1.0000
  C   C403      1.0  0.55267  0.60945  0.79442  1.0000
  C   C404      1.0  0.54295  0.56721  0.84027  1.0000
  C   C405      1.0  0.59821  0.64460  0.83762  1.0000
  C   C406      1.0  0.61029  0.59115  0.80968  1.0000
  C   C407      1.0  0.59998  0.56281  0.78102  1.0000
  C   C408      1.0  0.58165  0.64996  0.77457  1.0000
  C   C409      1.0  0.62130  0.64393  0.86671  1.0000
  H   H705      1.0  0.98868  0.72306  0.88151  1.0000
  H   H706      1.0  0.93724  0.78110  0.75089  1.0000
  C   C410      1.0  0.64523  0.68959  0.88081  1.0000
  H   H707      1.0  0.53687  0.58027  0.77977  1.0000
  H   H708      1.0  0.55949  0.56148  0.85932  1.0000
  H   H709      1.0  0.57424  0.65536  0.84349  1.0000
  H   H710      1.0  0.62399  0.67155  0.82401  1.0000
  H   H711      1.0  0.64184  0.62169  0.80513  1.0000
  H   H712      1.0  0.61773  0.57440  0.82787  1.0000
  H   H713      1.0  0.59994  0.58165  0.76129  1.0000
  H   H714      1.0  0.87692  0.58000  0.83188  1.0000
  H   H715      1.0  0.58685  0.68043  0.78580  1.0000
  H   H716      1.0  0.61424  0.65342  0.77044  1.0000
  H   H717      1.0  0.64552  0.63324  0.86216  1.0000
  H   H718      1.0  0.59751  0.62174  0.88353  1.0000
  C   C411      1.0  0.57670  0.50839  0.91470  1.0000
  C   C412      1.0  0.60951  0.52227  0.89273  1.0000
  C   C413      1.0  0.91903  0.63962  0.85695  1.0000
  C   C414      1.0  0.56029  0.64720  0.74456  1.0000
  C   C415      1.0  0.97621  0.78399  0.83772  1.0000
  H   H719      1.0  0.92610  0.79233  0.81529  1.0000
  H   H720      1.0  0.62197  0.70129  0.88616  1.0000
  H   H721      1.0  0.66111  0.68827  0.90176  1.0000
  H   H722      1.0  0.67094  0.71339  0.86552  1.0000
  C   C416      1.0  0.80864  0.77988  0.70094  1.0000
  H   H723      1.0  0.88593  0.76403  0.76971  1.0000
  C   C417      1.0  0.90154  0.75754  0.75034  1.0000
  H   H724      1.0  0.95128  0.80092  0.93718  1.0000
  H   H725      1.0  0.76260  0.66794  0.68752  1.0000
  C   C418      1.0  0.76922  0.78397  0.68957  1.0000
  H   H726      1.0  0.52521  0.61360  0.80296  1.0000
  H   H727      1.0  0.96991  0.64711  0.82606  1.0000
  H   H728      1.0  0.92765  0.72224  0.81763  1.0000
  C   C419      1.0  0.95175  0.73329  0.83614  1.0000
  C   C420      1.0  0.88230  0.76295  0.72135  1.0000
  H   H729      1.0  0.74338  0.71689  0.73712  1.0000
  H   H730      1.0  0.83913  0.80760  0.69147  1.0000
  N   N23       1.0  0.80762  0.73690  0.69520  1.0000
  H   H731      1.0  0.93121  0.72193  0.85661  1.0000
  C   C421      1.0  0.98685  0.72025  0.77613  1.0000
  C   C422      1.0  0.76189  0.69783  0.69507  1.0000
  H   H732      1.0  0.88882  0.79722  0.72018  1.0000
  H   H733      1.0  0.58126  0.67742  0.73154  1.0000
  H   H734      1.0  0.75026  0.66981  0.74001  1.0000
  C   C423      1.0  0.97957  0.76056  0.94839  1.0000
  H   H735      1.0  0.87227  0.57385  0.87166  1.0000
  C   C424      1.0  0.89562  0.58982  0.85301  1.0000
  H   H736      1.0  0.92837  0.65590  0.81082  1.0000
  C   C425      1.0  0.77905  0.83150  0.69093  1.0000
  C   C426      1.0  0.68863  0.65626  0.72205  1.0000
  C   C427      1.0  0.94716  0.76831  0.93614  1.0000
  C   C428      1.0  0.97459  0.71851  0.94733  1.0000
  H   H737      1.0  0.81045  0.78690  0.72527  1.0000
  H   H738      1.0  0.50223  0.85304  0.80652  1.0000
  C   C429      1.0  0.94429  0.80145  0.83658  1.0000
  H   H739      1.0  0.67404  0.67271  0.70921  1.0000
  H   H740      1.0  0.68185  0.62538  0.71069  1.0000
  H   H741      1.0  0.96253  0.83777  0.83849  1.0000
  H   H742      1.0  0.99399  0.79510  0.85912  1.0000
  H   H743      1.0  0.96483  0.73421  0.77563  1.0000
  H   H744      1.0  0.74091  0.70188  0.67861  1.0000
  H   H745      1.0  0.56772  0.53268  0.78210  1.0000
  H   H746      1.0  0.74930  0.83306  0.68497  1.0000
  H   H747      1.0  0.55658  0.61853  0.73166  1.0000
  C   C430      1.0  0.63421  0.54906  0.77524  1.0000
  H   H748      1.0  0.62462  0.52708  0.75555  1.0000
  H   H749      1.0  0.91954  0.57800  0.85293  1.0000
  H   H750      1.0  0.66657  0.57825  0.77051  1.0000
  H   H751      1.0  0.58248  0.52831  0.93438  1.0000
  H   H752      1.0  0.89993  0.75728  0.70286  1.0000
  N   N24       1.0  0.98003  0.71232  0.83379  1.0000
  H   H753      1.0  0.96769  0.68471  0.77095  1.0000
  H   H754      1.0  0.80559  0.85224  0.67507  1.0000
  H   H755      1.0  0.74000  0.76418  0.70369  1.0000
  H   H756      1.0  0.52771  0.64436  0.74774  1.0000
  H   H757      1.0  0.52109  0.57847  0.85007  1.0000
  H   H758      1.0  0.78900  0.84498  0.71373  1.0000
  C   C431      1.0  0.51385  0.52094  0.82684  1.0000
  H   H759      1.0  0.58497  0.98165  0.66933  1.0000
  C   C432      1.0  0.50938  0.92776  0.72053  1.0000
  H   H760      1.0  0.62605  0.50633  0.85019  1.0000
  H   H761      1.0  0.86401  0.76584  0.66574  1.0000
  H   H762      1.0  0.69380  0.50509  0.94155  1.0000
  H   H763      1.0  0.51002  0.95361  0.76417  1.0000
  H   H764      1.0  0.76021  0.77241  0.66642  1.0000
  H   H765      1.0  0.49962  0.52170  0.80514  1.0000
  H   H766      1.0  0.53340  0.50429  0.82419  1.0000
  H   H767      1.0  0.83202  0.70766  0.66363  1.0000
  H   H768      1.0  0.49836  0.90151  0.67621  1.0000
