data_image0
_chemical_formula_structural       C2SFeS2CH2FeS2H2CSCHFeSNHCHSH3C6H6C2H2CHCHC6H4CH6SCH2CH7C2HFeHCHCH3NCHC3HC2H3CHCH4C3HNH5CH3CSHC2H4SHCSHC2HNH5CH2CHCHCH2CH4CHC2HCHCH5CH2SHFeH3SC2H2CH3SFeCSHCH3SHCHSHCFeS2CSCSCHC7H4SHNH3C2H2C6H4C2SH2C3H2CH5CHC2H4CH4FeH3CH5FeHS2CH2C2H4CH2C2HSH2CH8CH2C3H2CH13NH5CH2SCHC3NH4CHCH5C2H3CNC2HC3H5FeSHSHCSFeHFeSHSH2FeS2FeSHSFeS2FeSFeSFeHFeS2CHS2C2H2C6H2FeHC6H4CHCH3C6H4C6H7CH2CNCHC4HCH6NH3C2H4CH2C2H2CH2CH3CHNCHC4FeH2C3H3CH8CHCHC2H10C4HC2H6C2HCHNCH3CH3SH2CHSCH7SC3HNH6C2NH3C2H2CH4FeCHSH2CH2C2HCSNCSC2HC2HCH2SH7CH9FeCH2SC2HCH7CH2CH7CH3CHCH2C4H2CHCH4CH2FeH5SC3H2CH5FeCH6C4H2CH2CH6CH3CH5SCNSFeHFeS3H2FeS2FeSHSFeS2FeSCSFeHFeS2CHS2C3SC6H4C6H7FeH2C6H4C6H7CHCH3SH4CNHCH5CSHSC3FeCH5CHC2H8CH11CH2CH5C2H2CH2CH3CH2CHCHSHNC4H9C2H8C3HC3FeCFeH2CHCHC2H3C3H2C3H4CH7NC3H2CHC2HCHSCHCSH4CH2CH5CH2CH3C2H5SCH3C2H2CHNCHCHCH6C2H4CHCHFeHCFeS2HSHFeSFeSHSFeS2FeSCSFe2S2HCSFeCFeSHSFeS2FeSHCSHC6H4C6H4C6H4CH2SHCH2SHC6H4C6H4C6H3CHNC9HCH16CH5SH5CH2CH2NH2CH5CH5CH8C2HCSNC3NCH2CHCH2CSHCH4SHCH2CH3CSCHC2H4CHCHCH4C2H2CHC2H2NH3CH8SCH5CH4C2H2CNHNC6HCHC2H17CH8FeHCH3C3HCFeH6C2SHCH2C2H3CH2CH2CH4CH5CHC2HFeH3SHCH2CH5C2H2CFeH2NCHCSH2CH4SH2CHC2H4FeS2FeSCFeSFeS3HSHFeSHSHFeS2HFeSFeSFeSHSFeS2FeSH2SC7H4C6H4C6H4CH2FeH2SHCHC6H4C7H3C6H9C2H2CH4CH4NCHCHNC4HC5H8CHCH2FeH9SC2HCH6C3SHCH4CHCHSC2H4CH3NH3CHSH2CH4SH6NH2C2NC7FeSC3H14CHCH2CH8C3H2CHCH16CHSH2C2HCHCH2CH8C2H2C2HCHCHCH2CH7C4NH12SHCHSHCHCH3C2H2SHS2FeS2FeHFeSHSHFeS2Fe2S2CH3FeS2FeS2CS2FeS2FeHFeSHSC6H4C6H2CHC6H5NCHCH5C6H4C6H4C6H5CH3NH2SCH4C2H2SHCHC2H3CHCH2SCHCH2CHCH2C3HC4SCH2CHCH8CH4CFeH3C2HCH6CH3CH3CH2CH11CHNCH2C2H3CH2CHNCH2CH2NC5HC2H4SH4CHCH2CH4CH3SH3FeCHCHCH2NHCH3CNHC4H3CH4CHC2H2CH6C3H4C2H2CH3CH4CHNH4C4H3CHCH5CH7CH3FeCH4C2HCHCH6FeCH3CH4CHCH2CHCHCSHFeHS2HS2FeS2FeHFeSHSCFeS2Fe2S2H2SHFeS2FeS2HSCFeS2FeCFeSHSC6H4C6H4C6H5CH2CHCSH2C6H4C6H4C7H2CH2NH2SC3HC3H2C3HC2HC5H5NC5HC3H2CH5CH18FeH5SNH3CH4CH4CH2CH6SFeH2C2SH5SNC12H19C2H9FeH4CH3CHNHC2H2CH3CH5CHNCH3CH5CH6SH10C3HC3H4CHCHCHCHCH3CHC2FeHCHC2H2CH3CH2CHCH9CSCHCH3FeS2FeS2HSHFeS2H2FeCSFeS2CFeSFeS2HSHC2H3FeC7H4C6H4C6H4C6H6NC3HC2NC2H12CH2CH2FeH5CH5CH3CFeH2CHCHCHFeH2CSHCSHC2H2NHCH3CH3C2H4CH2CHC2H5FeHCH3CH2SC2H3NC4HC2HCH2CH3FeH2C2H5FeHSH2CH5CH2CHCHC2SC3H4CSHCH2C2HCSHNH6CH3CH3CHC4H2CH3C2H4C3FeH2CH2NH5CHCH2CH8CH2CSH5SCHCHCH2C2HCHFeS2FeS2H2CFeSCFeHFeS2FeS2HFeSHS2H2CHC4H2C6H4C6H3C7H4C6H5CNHC4HC6HSH2CH9CH9CH6CH2CHCH2CH8CH3CSC3FeH6CHCHCH4CH2CH4CSHCHCNC4FeH3SHNCH3C2H7CH2SNH3CHC2HFeCH3CHC2HC2H5C2H3CH3CHSH2CHCH5C2H3FeCH2NHC3H3SCH2SH3FeHC2H4NH2C4HC2HCH2CSH3SHCH5CHCH5FeCHCH2S2HCH2CH8C2H4CH2CSCH2CHFeSH2SHC6SH5CHC6H2CH2CHCH3CH10NC12H19CH2SH5CSH2CH7CH6C2H5SCHCSCHCSCHSH4C6H5CH2CHC4HNH5NCHCH2C4SCH4CH8FeH4CH2CH4CH2CHCH5CH2CH4C5H2C3H7CH2NC2H5CHCH6CH2
_chemical_formula_sum              "C1152 S256 Fe128 H2048 N64"
_cell_length_a       55.8778
_cell_length_b       55.7916
_cell_length_c       39.6899
_cell_angle_alpha    90.2915
_cell_angle_beta     90.3667
_cell_angle_gamma    88.5768

_space_group_name_H-M_alt    "P 1"
_space_group_IT_number       1

loop_
  _space_group_symop_operation_xyz
  'x, y, z'

loop_
  _atom_site_type_symbol
  _atom_site_label
  _atom_site_symmetry_multiplicity
  _atom_site_fract_x
  _atom_site_fract_y
  _atom_site_fract_z
  _atom_site_occupancy
  C   C1        1.0  0.03623  0.19879  0.04858  1.0000
  C   C2        1.0  0.00039  0.45724  0.05325  1.0000
  S   S1        1.0  0.06227  0.99463  0.14136  1.0000
  Fe  Fe1       1.0  0.99900  0.10926  0.05797  1.0000
  S   S2        1.0  0.30198  0.47309  0.21169  1.0000
  S   S3        1.0  0.03570  0.09763  0.07905  1.0000
  C   C3        1.0  0.03000  0.17444  0.10157  1.0000
  H   H1        1.0  0.28172  0.45980  0.33491  1.0000
  H   H2        1.0  0.15844  0.99550  0.25857  1.0000
  Fe  Fe2       1.0  0.98114  0.31399  0.43615  1.0000
  S   S4        1.0  0.99402  0.27442  0.44203  1.0000
  S   S5        1.0  0.11128  0.42986  0.32725  1.0000
  H   H3        1.0  0.04150  0.18629  0.11691  1.0000
  H   H4        1.0  0.03479  0.00305  0.03142  1.0000
  C   C4        1.0  0.02977  0.02972  0.48838  1.0000
  S   S6        1.0  0.99832  0.34432  0.46487  1.0000
  C   C5        1.0  0.05883  0.03128  0.02061  1.0000
  H   H5        1.0  0.12655  0.21024  0.04368  1.0000
  Fe  Fe3       1.0  0.99592  0.36650  0.41757  1.0000
  S   S7        1.0  0.01706  0.40027  0.40611  1.0000
  N   N1        1.0  0.99685  0.46553  0.01731  1.0000
  H   H6        1.0  0.23005  0.00326  0.20926  1.0000
  C   C6        1.0  0.99743  0.22786  0.46617  1.0000
  H   H7        1.0  0.05683  0.24622  0.04066  1.0000
  S   S8        1.0  0.97635  0.13762  0.08385  1.0000
  H   H8        1.0  0.03734  0.42069  0.27682  1.0000
  H   H9        1.0  0.98520  0.02514  0.27153  1.0000
  H   H10       1.0  0.99816  0.00426  0.21466  1.0000
  C   C7        1.0  0.08479  0.42189  0.34869  1.0000
  C   C8        1.0  0.07122  0.43874  0.36708  1.0000
  C   C9        1.0  0.05101  0.43153  0.38514  1.0000
  C   C10       1.0  0.04368  0.40757  0.38443  1.0000
  C   C11       1.0  0.05705  0.39075  0.36573  1.0000
  C   C12       1.0  0.07762  0.39786  0.34822  1.0000
  H   H11       1.0  0.07669  0.45720  0.36806  1.0000
  H   H12       1.0  0.04112  0.44458  0.40010  1.0000
  H   H13       1.0  0.05171  0.37225  0.36495  1.0000
  H   H14       1.0  0.08808  0.38466  0.33425  1.0000
  H   H15       1.0  0.01218  0.42123  0.33371  1.0000
  H   H16       1.0  0.02003  0.47281  0.36085  1.0000
  C   C13       1.0  0.08872  0.20915  0.03111  1.0000
  C   C14       1.0  0.98106  0.45178  0.27226  1.0000
  H   H17       1.0  0.14698  0.45859  0.17880  1.0000
  H   H18       1.0  0.98361  0.11881  0.15533  1.0000
  C   C15       1.0  0.15445  0.98534  0.28178  1.0000
  H   H19       1.0  0.02861  0.02796  0.46053  1.0000
  C   C16       1.0  0.00091  0.46824  0.36314  1.0000
  H   H20       1.0  0.05710  0.16665  0.06486  1.0000
  C   C17       1.0  0.05576  0.02332  0.12361  1.0000
  C   C18       1.0  0.07219  0.04182  0.12391  1.0000
  C   C19       1.0  0.06576  0.06445  0.11029  1.0000
  C   C20       1.0  0.04290  0.06886  0.09614  1.0000
  C   C21       1.0  0.02652  0.05029  0.09573  1.0000
  C   C22       1.0  0.03290  0.02773  0.10948  1.0000
  H   H21       1.0  0.08980  0.03878  0.13481  1.0000
  H   H22       1.0  0.07860  0.07865  0.11070  1.0000
  H   H23       1.0  0.00891  0.05334  0.08489  1.0000
  H   H24       1.0  0.01996  0.01362  0.10922  1.0000
  C   C23       1.0  0.04186  0.98599  0.49477  1.0000
  H   H25       1.0  0.04553  0.21133  0.06563  1.0000
  H   H26       1.0  0.01109  0.18107  0.10296  1.0000
  H   H27       1.0  0.98162  0.13281  0.37810  1.0000
  H   H28       1.0  0.03950  0.28588  0.02447  1.0000
  H   H29       1.0  0.00440  0.09080  0.19397  1.0000
  H   H30       1.0  0.08838  0.99329  0.01692  1.0000
  S   S9        1.0  0.18601  0.97919  0.19517  1.0000
  C   C24       1.0  0.97667  0.45241  0.00032  1.0000
  H   H31       1.0  0.00144  0.43730  0.05435  1.0000
  H   H32       1.0  0.99990  0.09573  0.13251  1.0000
  C   C25       1.0  0.98602  0.14155  0.40244  1.0000
  H   H33       1.0  0.28610  0.44359  0.39285  1.0000
  H   H34       1.0  0.05869  0.46667  0.24868  1.0000
  H   H35       1.0  0.06828  0.43627  0.23957  1.0000
  H   H36       1.0  0.07501  0.05618  0.20838  1.0000
  H   H37       1.0  0.07448  0.17481  0.01616  1.0000
  H   H38       1.0  0.98894  0.36494  0.29778  1.0000
  H   H39       1.0  0.98224  0.37988  0.33707  1.0000
  C   C26       1.0  0.05865  0.05630  0.22417  1.0000
  C   C27       1.0  0.02827  0.43290  0.99865  1.0000
  H   H40       1.0  0.08903  0.22770  0.02122  1.0000
  Fe  Fe4       1.0  0.12068  0.46778  0.31140  1.0000
  H   H41       1.0  0.02686  0.16064  0.05165  1.0000
  C   C28       1.0  0.03834  0.17361  0.06498  1.0000
  H   H42       1.0  0.13431  0.46657  0.13805  1.0000
  C   C29       1.0  0.27768  0.46157  0.38844  1.0000
  H   H43       1.0  0.02440  0.43916  0.24358  1.0000
  H   H44       1.0  0.97620  0.43364  0.00962  1.0000
  H   H45       1.0  0.12041  0.19841  0.00226  1.0000
  N   N2        1.0  0.99152  0.04193  0.20493  1.0000
  C   C30       1.0  0.04072  0.24692  0.02437  1.0000
  H   H46       1.0  0.00257  0.40309  0.27349  1.0000
  C   C31       1.0  0.05981  0.44816  0.25886  1.0000
  C   C32       1.0  0.99559  0.42550  0.31904  1.0000
  C   C33       1.0  0.97867  0.16842  0.40152  1.0000
  H   H47       1.0  0.03445  0.45308  0.31738  1.0000
  C   C34       1.0  0.02291  0.45527  0.29463  1.0000
  C   C35       1.0  0.98748  0.08515  0.18195  1.0000
  H   H48       1.0  0.04348  0.04357  0.01446  1.0000
  H   H49       1.0  0.98324  0.00182  0.44057  1.0000
  H   H50       1.0  0.30096  0.42765  0.26642  1.0000
  C   C36       1.0  0.98090  0.46448  0.07911  1.0000
  H   H51       1.0  0.98675  0.17729  0.42398  1.0000
  C   C37       1.0  0.98290  0.24882  0.46371  1.0000
  H   H52       1.0  0.07443  0.99114  0.05649  1.0000
  H   H53       1.0  0.00130  0.05369  0.15509  1.0000
  H   H54       1.0  0.00916  0.01395  0.17551  1.0000
  H   H55       1.0  0.01764  0.03499  0.24441  1.0000
  C   C38       1.0  0.98449  0.09933  0.14944  1.0000
  C   C39       1.0  0.07151  0.98771  0.02906  1.0000
  C   C40       1.0  0.05137  0.00524  0.01662  1.0000
  H   H56       1.0  0.01707  0.20463  0.04973  1.0000
  N   N3        1.0  0.99723  0.44999  0.30289  1.0000
  H   H57       1.0  0.03106  0.15609  0.11234  1.0000
  H   H58       1.0  0.00488  0.46674  0.12263  1.0000
  H   H59       1.0  0.08385  0.20957  0.05812  1.0000
  H   H60       1.0  0.07147  0.44793  0.28162  1.0000
  H   H61       1.0  0.04191  0.03050  0.19268  1.0000
  C   C41       1.0  0.03492  0.43927  0.26732  1.0000
  H   H62       1.0  0.25842  0.44885  0.22641  1.0000
  H   H63       1.0  0.11578  0.46707  0.17503  1.0000
  H   H64       1.0  0.15799  0.99708  0.30385  1.0000
  C   C42       1.0  0.01303  0.13821  0.40772  1.0000
  S   S10       1.0  0.99513  0.12834  0.00817  1.0000
  H   H65       1.0  0.01278  0.37743  0.32262  1.0000
  C   C43       1.0  0.01408  0.04812  0.22390  1.0000
  C   C44       1.0  0.03736  0.04859  0.20273  1.0000
  H   H66       1.0  0.11530  0.18039  0.03928  1.0000
  H   H67       1.0  0.02478  0.24675  0.04100  1.0000
  H   H68       1.0  0.00134  0.19163  0.48556  1.0000
  H   H69       1.0  0.98765  0.43589  0.47716  1.0000
  S   S11       1.0  0.98237  0.33512  0.38717  1.0000
  H   H70       1.0  0.01464  0.97997  0.40144  1.0000
  C   C45       1.0  0.99385  0.01627  0.19311  1.0000
  S   S12       1.0  0.11591  0.98174  0.21254  1.0000
  H   H71       1.0  0.25797  0.45953  0.38688  1.0000
  C   C46       1.0  0.01989  0.45966  0.99883  1.0000
  C   C47       1.0  0.11427  0.19884  0.02884  1.0000
  H   H72       1.0  0.01876  0.14680  0.43167  1.0000
  N   N4        1.0  0.04499  0.20064  0.01277  1.0000
  H   H73       1.0  0.03569  0.06126  0.18135  1.0000
  H   H74       1.0  0.98798  0.17556  0.37919  1.0000
  H   H75       1.0  0.07383  0.03519  0.00343  1.0000
  H   H76       1.0  0.01507  0.22762  0.45504  1.0000
  H   H77       1.0  0.06457  0.03493  0.04692  1.0000
  C   C48       1.0  0.04029  0.27092  0.00591  1.0000
  H   H78       1.0  0.06176  0.04370  0.24543  1.0000
  H   H79       1.0  0.01189  0.06573  0.23698  1.0000
  C   C49       1.0  0.99060  0.40378  0.29557  1.0000
  H   H80       1.0  0.02296  0.14608  0.38647  1.0000
  C   C50       1.0  0.07125  0.19406  0.00993  1.0000
  H   H81       1.0  0.05557  0.07474  0.23418  1.0000
  C   C51       1.0  0.98964  0.20731  0.48342  1.0000
  H   H82       1.0  0.03670  0.16418  0.99828  1.0000
  H   H83       1.0  0.01768  0.11876  0.40911  1.0000
  C   C52       1.0  0.98771  0.05782  0.17470  1.0000
  H   H84       1.0  0.21844  0.46233  0.24754  1.0000
  H   H85       1.0  0.99264  0.43753  0.11590  1.0000
  H   H86       1.0  0.99979  0.45046  0.37533  1.0000
  H   H87       1.0  0.04111  0.98510  0.46676  1.0000
  C   C53       1.0  0.98841  0.46859  0.32804  1.0000
  H   H88       1.0  0.01778  0.46377  0.06323  1.0000
  C   C54       1.0  0.98862  0.45711  0.11474  1.0000
  C   C55       1.0  0.23290  0.98477  0.21669  1.0000
  H   H89       1.0  0.03144  0.42594  0.02442  1.0000
  C   C56       1.0  0.25519  0.46760  0.23235  1.0000
  H   H90       1.0  0.97666  0.03271  0.45131  1.0000
  C   C57       1.0  0.99384  0.38010  0.31447  1.0000
  H   H91       1.0  0.03132  0.98522  0.23996  1.0000
  H   H92       1.0  0.97707  0.13223  0.42317  1.0000
  H   H93       1.0  0.26960  0.99010  0.23277  1.0000
  H   H94       1.0  0.98094  0.42535  0.33796  1.0000
  H   H95       1.0  0.98606  0.43810  0.25308  1.0000
  C   C58       1.0  0.13398  0.47065  0.16546  1.0000
  H   H96       1.0  0.98274  0.21509  0.37969  1.0000
  H   H97       1.0  0.13524  0.98073  0.28153  1.0000
  S   S13       1.0  0.13548  0.47263  0.25909  1.0000
  H   H98       1.0  0.01180  0.18459  0.99721  1.0000
  Fe  Fe5       1.0  0.09530  0.97534  0.16452  1.0000
  H   H99       1.0  0.03477  0.47045  0.00935  1.0000
  H   H100      1.0  0.30140  0.46879  0.28858  1.0000
  H   H101      1.0  0.04016  0.97841  0.07829  1.0000
  S   S14       1.0  0.99472  0.12338  0.49229  1.0000
  C   C59       1.0  0.28667  0.47222  0.35559  1.0000
  C   C60       1.0  0.25545  0.97734  0.23006  1.0000
  H   H102      1.0  0.28173  0.47354  0.41009  1.0000
  H   H103      1.0  0.02472  0.47438  0.28738  1.0000
  C   C61       1.0  0.03978  0.22557  0.99913  1.0000
  H   H104      1.0  0.04799  0.03551  0.49564  1.0000
  H   H105      1.0  0.04956  0.45873  0.78580  1.0000
  H   H106      1.0  0.99539  0.45185  0.53646  1.0000
  S   S15       1.0  0.07500  0.02326  0.67171  1.0000
  Fe  Fe6       1.0  0.00219  0.09915  0.53669  1.0000
  C   C62       1.0  0.98991  0.39662  0.81853  1.0000
  S   S16       1.0  0.03937  0.08223  0.54317  1.0000
  H   H107      1.0  0.01450  0.35515  0.83972  1.0000
  C   C63       1.0  0.14921  0.45506  0.61503  1.0000
  H   H108      1.0  0.01674  0.43459  0.83173  1.0000
  H   H109      1.0  0.18444  0.43928  0.61013  1.0000
  H   H110      1.0  0.97851  0.26391  0.58373  1.0000
  S   S17       1.0  0.10953  0.43137  0.80974  1.0000
  H   H111      1.0  0.98827  0.41367  0.50992  1.0000
  C   C64       1.0  0.05096  0.97636  0.60433  1.0000
  H   H112      1.0  0.04708  0.00223  0.98966  1.0000
  S   S18       1.0  0.00189  0.35349  0.96961  1.0000
  H   H113      1.0  0.18430  0.00074  0.79307  1.0000
  C   C65       1.0  0.00552  0.37866  0.79749  1.0000
  Fe  Fe7       1.0  0.99850  0.37814  0.92465  1.0000
  S   S19       1.0  0.02276  0.40838  0.90784  1.0000
  S   S20       1.0  0.97661  0.11943  0.57109  1.0000
  C   C66       1.0  0.25697  0.97866  0.75253  1.0000
  S   S21       1.0  0.30748  0.47225  0.71348  1.0000
  C   C67       1.0  0.03390  0.18483  0.95280  1.0000
  S   S22       1.0  0.11989  0.98781  0.72605  1.0000
  C   C68       1.0  0.99507  0.06308  0.69358  1.0000
  H   H114      1.0  0.99484  0.27516  0.53132  1.0000
  C   C69       1.0  0.98191  0.30575  0.56325  1.0000
  C   C70       1.0  0.08501  0.42522  0.83647  1.0000
  C   C71       1.0  0.07436  0.44303  0.85672  1.0000
  C   C72       1.0  0.05556  0.43732  0.87855  1.0000
  C   C73       1.0  0.04693  0.41388  0.88024  1.0000
  C   C74       1.0  0.05733  0.39610  0.85968  1.0000
  C   C75       1.0  0.07636  0.40175  0.83807  1.0000
  H   H115      1.0  0.17048  0.97637  0.84124  1.0000
  H   H116      1.0  0.04776  0.45115  0.89447  1.0000
  H   H117      1.0  0.05098  0.37798  0.86077  1.0000
  H   H118      1.0  0.08457  0.38780  0.82267  1.0000
  S   S23       1.0  0.98062  0.28813  0.93688  1.0000
  H   H119      1.0  0.03106  0.29585  0.55033  1.0000
  N   N5        1.0  0.98617  0.42149  0.80410  1.0000
  H   H120      1.0  0.01161  0.06153  0.70905  1.0000
  H   H121      1.0  0.02815  0.29638  0.50507  1.0000
  H   H122      1.0  0.02672  0.14725  0.94200  1.0000
  C   C76       1.0  0.25576  0.98522  0.65190  1.0000
  C   C77       1.0  0.05203  0.42965  0.98007  1.0000
  H   H123      1.0  0.02143  0.16734  0.90715  1.0000
  H   H124      1.0  0.16169  0.01649  0.81733  1.0000
  C   C78       1.0  0.06557  0.03907  0.63522  1.0000
  C   C79       1.0  0.07428  0.03356  0.60307  1.0000
  C   C80       1.0  0.06586  0.04670  0.57495  1.0000
  C   C81       1.0  0.04834  0.06507  0.57866  1.0000
  C   C82       1.0  0.03953  0.07041  0.61077  1.0000
  C   C83       1.0  0.04850  0.05777  0.63891  1.0000
  H   H125      1.0  0.08783  0.01955  0.59999  1.0000
  H   H126      1.0  0.07314  0.04281  0.55029  1.0000
  H   H127      1.0  0.02651  0.08489  0.61404  1.0000
  H   H128      1.0  0.04248  0.06270  0.66383  1.0000
  C   C84       1.0  0.97607  0.26297  0.96403  1.0000
  C   C85       1.0  0.99596  0.01589  0.65372  1.0000
  S   S24       1.0  0.13449  0.97926  0.64838  1.0000
  H   H129      1.0  0.06341  0.98931  0.55700  1.0000
  H   H130      1.0  0.15987  0.43894  0.68062  1.0000
  C   C86       1.0  0.30111  0.04277  0.59040  1.0000
  C   C87       1.0  0.14263  0.45071  0.57810  1.0000
  C   C88       1.0  0.25432  0.44917  0.64557  1.0000
  H   H131      1.0  0.99275  0.41589  0.75086  1.0000
  H   H132      1.0  0.28701  0.05562  0.58137  1.0000
  C   C89       1.0  0.29627  0.00571  0.68715  1.0000
  H   H133      1.0  0.02373  0.42323  0.79157  1.0000
  H   H134      1.0  0.02421  0.38472  0.79560  1.0000
  H   H135      1.0  0.13990  0.47188  0.62305  1.0000
  H   H136      1.0  0.22788  0.00485  0.75567  1.0000
  H   H137      1.0  0.29314  0.99362  0.70884  1.0000
  C   C90       1.0  0.97826  0.42959  0.49994  1.0000
  H   H138      1.0  0.02509  0.02506  0.70515  1.0000
  C   C91       1.0  0.17673  0.45657  0.61973  1.0000
  C   C92       1.0  0.15909  0.97773  0.81832  1.0000
  H   H139      1.0  0.22428  0.44075  0.61440  1.0000
  H   H140      1.0  0.01185  0.02708  0.64951  1.0000
  H   H141      1.0  0.99989  0.06409  0.66657  1.0000
  H   H142      1.0  0.99684  0.47145  0.80158  1.0000
  C   C93       1.0  0.22773  0.44394  0.64160  1.0000
  H   H143      1.0  0.01788  0.34146  0.79878  1.0000
  H   H144      1.0  0.97995  0.45047  0.97275  1.0000
  H   H145      1.0  0.99426  0.30299  0.58515  1.0000
  H   H146      1.0  0.05660  0.41023  0.97753  1.0000
  Fe  Fe8       1.0  0.10124  0.99142  0.67611  1.0000
  H   H147      1.0  0.97917  0.23734  0.92337  1.0000
  H   H148      1.0  0.25162  0.98652  0.67912  1.0000
  H   H149      1.0  0.00643  0.01590  0.73871  1.0000
  C   C94       1.0  0.23331  0.98726  0.74650  1.0000
  H   H150      1.0  0.28236  0.03548  0.63594  1.0000
  H   H151      1.0  0.03423  0.98541  0.76121  1.0000
  H   H152      1.0  0.18346  0.47042  0.60231  1.0000
  H   H153      1.0  0.21116  0.43627  0.71000  1.0000
  H   H154      1.0  0.02094  0.32302  0.52924  1.0000
  Fe  Fe9       1.0  0.12060  0.46886  0.79440  1.0000
  H   H155      1.0  0.22608  0.46239  0.75818  1.0000
  S   S25       1.0  0.97533  0.07243  0.52043  1.0000
  S   S26       1.0  0.13663  0.47269  0.74265  1.0000
  C   C95       1.0  0.01064  0.01254  0.71163  1.0000
  H   H156      1.0  0.14206  0.44009  0.62993  1.0000
  H   H157      1.0  0.99869  0.39753  0.84374  1.0000
  C   C96       1.0  0.01059  0.45928  0.79034  1.0000
  C   C97       1.0  0.00989  0.43384  0.80547  1.0000
  H   H158      1.0  0.00220  0.99738  0.64715  1.0000
  H   H159      1.0  0.14012  0.97923  0.82659  1.0000
  H   H160      1.0  0.05646  0.99612  0.73225  1.0000
  H   H161      1.0  0.18626  0.40042  0.71945  1.0000
  C   C98       1.0  0.98292  0.08697  0.70299  1.0000
  H   H162      1.0  0.26752  0.44902  0.74353  1.0000
  H   H163      1.0  0.00047  0.16687  0.94144  1.0000
  C   C99       1.0  0.18230  0.41772  0.73249  1.0000
  C   C100      1.0  0.01975  0.16536  0.93485  1.0000
  H   H164      1.0  0.22430  0.42716  0.65538  1.0000
  S   S27       1.0  0.97495  0.35296  0.89552  1.0000
  H   H165      1.0  0.06717  0.98173  0.61849  1.0000
  H   H166      1.0  0.05174  0.22931  0.97752  1.0000
  C   C101      1.0  0.26179  0.46738  0.73885  1.0000
  H   H167      1.0  0.18763  0.45529  0.72660  1.0000
  H   H168      1.0  0.08093  0.46109  0.85602  1.0000
  H   H169      1.0  0.02696  0.20239  0.94341  1.0000
  H   H170      1.0  0.19129  0.41736  0.75755  1.0000
  H   H171      1.0  0.12287  0.44972  0.57547  1.0000
  H   H172      1.0  0.98483  0.30121  0.50832  1.0000
  H   H173      1.0  0.02433  0.27257  0.98918  1.0000
  H   H174      1.0  0.00789  0.45831  0.76264  1.0000
  C   C102      1.0  0.17955  0.43967  0.67656  1.0000
  H   H175      1.0  0.15077  0.43350  0.56901  1.0000
  H   H176      1.0  0.05284  0.18259  0.94505  1.0000
  C   C103      1.0  0.00656  0.35398  0.81404  1.0000
  C   C104      1.0  0.03127  0.18291  0.99166  1.0000
  C   C105      1.0  0.99436  0.29504  0.53142  1.0000
  H   H177      1.0  0.16269  0.41971  0.73658  1.0000
  H   H178      1.0  0.15393  0.00331  0.77738  1.0000
  C   C106      1.0  0.19145  0.43869  0.71200  1.0000
  H   H179      1.0  0.01681  0.04395  0.49644  1.0000
  H   H180      1.0  0.99824  0.37626  0.77167  1.0000
  H   H181      1.0  0.18437  0.42262  0.66326  1.0000
  H   H182      1.0  0.98833  0.34656  0.81580  1.0000
  H   H183      1.0  0.25920  0.45072  0.67261  1.0000
  H   H184      1.0  0.03730  0.99105  0.60666  1.0000
  H   H185      1.0  0.97638  0.08669  0.72933  1.0000
  H   H186      1.0  0.01825  0.46470  0.97179  1.0000
  H   H187      1.0  0.21894  0.97592  0.64164  1.0000
  H   H188      1.0  0.00135  0.03809  0.59103  1.0000
  H   H189      1.0  0.14885  0.46559  0.56212  1.0000
  H   H190      1.0  0.21845  0.47072  0.67999  1.0000
  H   H191      1.0  0.98324  0.01168  0.99491  1.0000
  N   N6        1.0  0.98853  0.01721  0.69020  1.0000
  H   H192      1.0  0.98979  0.44288  0.86973  1.0000
  H   H193      1.0  0.25314  0.00334  0.64134  1.0000
  H   H194      1.0  0.02465  0.00932  0.53310  1.0000
  H   H195      1.0  0.05082  0.43744  0.95445  1.0000
  H   H196      1.0  0.27927  0.01614  0.68406  1.0000
  C   C107      1.0  0.98743  0.02424  0.59191  1.0000
  H   H197      1.0  0.27566  0.01591  0.60077  1.0000
  H   H198      1.0  0.26946  0.98959  0.76628  1.0000
  S   S28       1.0  0.18800  0.98644  0.71859  1.0000
  C   C108      1.0  0.02021  0.30314  0.52902  1.0000
  H   H199      1.0  0.02127  0.22682  0.98867  1.0000
  C   C109      1.0  0.16513  0.00093  0.80034  1.0000
  C   C110      1.0  0.04179  0.98327  0.73553  1.0000
  C   C111      1.0  0.21190  0.46525  0.65461  1.0000
  N   N7        1.0  0.18532  0.46110  0.65524  1.0000
  H   H200      1.0  0.97605  0.47409  0.58105  1.0000
  H   H201      1.0  0.01473  0.42165  0.98597  1.0000
  H   H202      1.0  0.26528  0.43427  0.63450  1.0000
  H   H203      1.0  0.03830  0.47322  0.82352  1.0000
  C   C112      1.0  0.97672  0.23959  0.95022  1.0000
  H   H204      1.0  0.99544  0.00662  0.58444  1.0000
  C   C113      1.0  0.29016  0.02499  0.61473  1.0000
  H   H205      1.0  0.97634  0.44048  0.70318  1.0000
  H   H206      1.0  0.99595  0.10159  0.70065  1.0000
  H   H207      1.0  0.06663  0.43845  0.99421  1.0000
  H   H208      1.0  0.98473  0.99847  0.88014  1.0000
  H   H209      1.0  0.29073  0.04480  0.73064  1.0000
  C   C114      1.0  0.02242  0.98708  0.70861  1.0000
  C   C115      1.0  0.02393  0.00611  0.50551  1.0000
  H   H210      1.0  0.97803  0.99310  0.93800  1.0000
  H   H211      1.0  0.00551  0.00167  0.49785  1.0000
  H   H212      1.0  0.25882  0.46606  0.63261  1.0000
  C   C116      1.0  0.97732  0.41904  0.76813  1.0000
  N   N8        1.0  0.30221  0.99084  0.65625  1.0000
  C   C117      1.0  0.97846  0.04169  0.69977  1.0000
  C   C118      1.0  0.97686  0.44914  0.52705  1.0000
  H   H213      1.0  0.03102  0.98473  0.68360  1.0000
  C   C119      1.0  0.23811  0.47486  0.74687  1.0000
  C   C120      1.0  0.97665  0.02294  0.62715  1.0000
  C   C121      1.0  0.03498  0.47043  0.79622  1.0000
  H   H214      1.0  0.05667  0.27268  0.99050  1.0000
  H   H215      1.0  0.07722  0.19577  0.98343  1.0000
  H   H216      1.0  0.98082  0.32544  0.55897  1.0000
  H   H217      1.0  0.06018  0.99229  0.50078  1.0000
  H   H218      1.0  0.99271  0.99554  0.81954  1.0000
  Fe  Fe10      1.0  0.97581  0.32938  0.94256  1.0000
  S   S29       1.0  0.28797  0.94270  0.25608  1.0000
  H   H219      1.0  0.02847  0.80980  0.34507  1.0000
  S   S30       1.0  0.03965  0.83298  0.45904  1.0000
  H   H220      1.0  0.16628  0.88676  0.23275  1.0000
  C   C122      1.0  0.98017  0.47629  0.25382  1.0000
  S   S31       1.0  0.00229  0.84352  0.39526  1.0000
  Fe  Fe11      1.0  0.00210  0.82299  0.44467  1.0000
  H   H221      1.0  0.01153  0.58854  0.16319  1.0000
  Fe  Fe12      1.0  0.03895  0.85476  0.41114  1.0000
  S   S32       1.0  0.06817  0.85217  0.37155  1.0000
  H   H222      1.0  0.00514  0.57393  0.25647  1.0000
  S   S33       1.0  0.02561  0.88822  0.43671  1.0000
  H   H223      1.0  0.26186  0.91329  0.35163  1.0000
  H   H224      1.0  0.02241  0.76990  0.08121  1.0000
  Fe  Fe13      1.0  0.11701  0.92484  0.15717  1.0000
  S   S34       1.0  0.08357  0.93901  0.18170  1.0000
  S   S35       1.0  0.11761  0.89297  0.12114  1.0000
  Fe  Fe14      1.0  0.10625  0.94440  0.22784  1.0000
  S   S36       1.0  0.09349  0.94254  0.28230  1.0000
  H   H225      1.0  0.06420  0.70576  0.39211  1.0000
  S   S37       1.0  0.13908  0.92684  0.20503  1.0000
  Fe  Fe15      1.0  0.10834  0.50300  0.25563  1.0000
  S   S38       1.0  0.13398  0.53012  0.27472  1.0000
  S   S39       1.0  0.08424  0.50512  0.20948  1.0000
  Fe  Fe16      1.0  0.12021  0.52115  0.32609  1.0000
  S   S40       1.0  0.11472  0.55154  0.36380  1.0000
  Fe  Fe17      1.0  0.16077  0.49942  0.28162  1.0000
  S   S41       1.0  0.09211  0.49652  0.30636  1.0000
  Fe  Fe18      1.0  0.01025  0.62831  0.02848  1.0000
  H   H226      1.0  0.10178  0.92842  0.47149  1.0000
  Fe  Fe19      1.0  0.04105  0.59668  0.07507  1.0000
  S   S42       1.0  0.02772  0.56277  0.05278  1.0000
  S   S43       1.0  0.06756  0.59747  0.11893  1.0000
  C   C123      1.0  0.24078  0.93730  0.23582  1.0000
  H   H227      1.0  0.03385  0.64286  0.20646  1.0000
  S   S44       1.0  0.04822  0.61352  0.02452  1.0000
  S   S45       1.0  0.00397  0.61295  0.08062  1.0000
  C   C124      1.0  0.24627  0.51574  0.24741  1.0000
  C   C125      1.0  0.26907  0.50813  0.23543  1.0000
  H   H228      1.0  0.24293  0.53453  0.25296  1.0000
  H   H229      1.0  0.28283  0.52107  0.23147  1.0000
  C   C126      1.0  0.08764  0.55611  0.38586  1.0000
  C   C127      1.0  0.06864  0.54043  0.38238  1.0000
  C   C128      1.0  0.04765  0.54424  0.40125  1.0000
  C   C129      1.0  0.04555  0.56363  0.42387  1.0000
  C   C130      1.0  0.06451  0.57934  0.42731  1.0000
  C   C131      1.0  0.08542  0.57564  0.40820  1.0000
  H   H230      1.0  0.07019  0.52530  0.36534  1.0000
  H   H231      1.0  0.03305  0.53199  0.39853  1.0000
  Fe  Fe20      1.0  0.99089  0.57963  0.05450  1.0000
  H   H232      1.0  0.10004  0.58788  0.41089  1.0000
  C   C132      1.0  0.08207  0.53061  0.18343  1.0000
  C   C133      1.0  0.09043  0.55290  0.19381  1.0000
  C   C134      1.0  0.08665  0.57316  0.17324  1.0000
  C   C135      1.0  0.07429  0.57129  0.14239  1.0000
  C   C136      1.0  0.06658  0.54884  0.13174  1.0000
  C   C137      1.0  0.07055  0.52860  0.15211  1.0000
  H   H233      1.0  0.09915  0.55463  0.21807  1.0000
  H   H234      1.0  0.09270  0.59047  0.18167  1.0000
  H   H235      1.0  0.05736  0.54706  0.10793  1.0000
  H   H236      1.0  0.06427  0.51135  0.14380  1.0000
  C   C138      1.0  0.13983  0.49691  0.17191  1.0000
  H   H237      1.0  0.24373  0.91875  0.24287  1.0000
  C   C139      1.0  0.03447  0.72461  0.07743  1.0000
  H   H238      1.0  0.24838  0.94256  0.35868  1.0000
  H   H239      1.0  0.06251  0.54586  0.28725  1.0000
  H   H240      1.0  0.08880  0.73476  0.38859  1.0000
  C   C140      1.0  0.08625  0.91698  0.30604  1.0000
  C   C141      1.0  0.07586  0.92041  0.33792  1.0000
  C   C142      1.0  0.06974  0.90070  0.35783  1.0000
  C   C143      1.0  0.07459  0.87734  0.34644  1.0000
  C   C144      1.0  0.08530  0.87391  0.31475  1.0000
  C   C145      1.0  0.09079  0.89363  0.29437  1.0000
  H   H241      1.0  0.07243  0.93841  0.34724  1.0000
  H   H242      1.0  0.06171  0.90358  0.38227  1.0000
  H   H243      1.0  0.08914  0.85588  0.30578  1.0000
  H   H244      1.0  0.09873  0.89077  0.26985  1.0000
  C   C146      1.0  0.05402  0.88423  0.04850  1.0000
  C   C147      1.0  0.05087  0.89567  0.07975  1.0000
  C   C148      1.0  0.07028  0.89867  0.10189  1.0000
  C   C149      1.0  0.09300  0.88962  0.09342  1.0000
  C   C150      1.0  0.09609  0.87754  0.06249  1.0000
  C   C151      1.0  0.07675  0.87525  0.03978  1.0000
  H   H245      1.0  0.03331  0.90243  0.08686  1.0000
  H   H246      1.0  0.06757  0.90771  0.12575  1.0000
  H   H247      1.0  0.11362  0.87046  0.05576  1.0000
  H   H248      1.0  0.01166  0.85279  0.07826  1.0000
  H   H249      1.0  0.12614  0.91468  0.03646  1.0000
  H   H250      1.0  0.99906  0.96701  0.06554  1.0000
  H   H251      1.0  0.07366  0.83289  0.08349  1.0000
  C   C152      1.0  0.25962  0.95350  0.23977  1.0000
  H   H252      1.0  0.02747  0.62958  0.16597  1.0000
  H   H253      1.0  0.97993  0.47923  0.49461  1.0000
  C   C153      1.0  0.04604  0.75948  0.39266  1.0000
  N   N9        1.0  0.00593  0.93174  0.30244  1.0000
  C   C154      1.0  0.02224  0.94876  0.28473  1.0000
  H   H254      1.0  0.24409  0.50333  0.17176  1.0000
  C   C155      1.0  0.01470  0.90652  0.29431  1.0000
  C   C156      1.0  0.25481  0.93393  0.13787  1.0000
  C   C157      1.0  0.17219  0.91394  0.35384  1.0000
  C   C158      1.0  0.02238  0.94746  0.24568  1.0000
  H   H255      1.0  0.97599  0.49800  0.02875  1.0000
  C   C159      1.0  0.99429  0.75607  0.46604  1.0000
  H   H256      1.0  0.00717  0.50123  0.03238  1.0000
  H   H257      1.0  0.18611  0.91629  0.26905  1.0000
  H   H258      1.0  0.02884  0.96264  0.01827  1.0000
  H   H259      1.0  0.06054  0.79570  0.38227  1.0000
  H   H260      1.0  0.04102  0.94574  0.29363  1.0000
  H   H261      1.0  0.98007  0.97332  0.28035  1.0000
  N   N10       1.0  0.06297  0.75261  0.42113  1.0000
  H   H262      1.0  0.16971  0.86261  0.26259  1.0000
  H   H263      1.0  0.03426  0.90459  0.29965  1.0000
  H   H264      1.0  0.01252  0.90258  0.26698  1.0000
  C   C160      1.0  0.99316  0.49245  0.01679  1.0000
  C   C161      1.0  0.12888  0.52287  0.45354  1.0000
  H   H265      1.0  0.03027  0.96633  0.34739  1.0000
  H   H266      1.0  0.21230  0.93994  0.30079  1.0000
  H   H267      1.0  0.03018  0.93008  0.23681  1.0000
  H   H268      1.0  0.00404  0.94973  0.23517  1.0000
  C   C162      1.0  0.98029  0.93426  0.29046  1.0000
  H   H269      1.0  0.04504  0.70752  0.07898  1.0000
  H   H270      1.0  0.27835  0.92711  0.17958  1.0000
  C   C163      1.0  0.23240  0.47520  0.24435  1.0000
  C   C164      1.0  0.06526  0.94212  0.46329  1.0000
  H   H271      1.0  0.04794  0.83195  0.10961  1.0000
  H   H272      1.0  0.13443  0.48648  0.43402  1.0000
  C   C165      1.0  0.06128  0.79604  0.09413  1.0000
  H   H273      1.0  0.08286  0.92757  0.03945  1.0000
  H   H274      1.0  0.04997  0.78870  0.11447  1.0000
  C   C166      1.0  0.04948  0.70876  0.41030  1.0000
  H   H275      1.0  0.00326  0.84722  0.31669  1.0000
  H   H276      1.0  0.14942  0.88543  0.30605  1.0000
  H   H277      1.0  0.10372  0.56465  0.47059  1.0000
  C   C167      1.0  0.98552  0.73453  0.45250  1.0000
  H   H278      1.0  0.97613  0.54228  0.46293  1.0000
  N   N11       1.0  0.17291  0.52837  0.16093  1.0000
  C   C168      1.0  0.16229  0.54130  0.19109  1.0000
  H   H279      1.0  0.02740  0.80793  0.02198  1.0000
  C   C169      1.0  0.19986  0.52845  0.16510  1.0000
  C   C170      1.0  0.16650  0.54076  0.12826  1.0000
  C   C171      1.0  0.13944  0.54453  0.12056  1.0000
  C   C172      1.0  0.16788  0.56835  0.19445  1.0000
  Fe  Fe21      1.0  0.01485  0.59174  0.49328  1.0000
  H   H280      1.0  0.97596  0.73501  0.42871  1.0000
  H   H281      1.0  0.09762  0.81182  0.05048  1.0000
  C   C173      1.0  0.13522  0.56220  0.09170  1.0000
  C   C174      1.0  0.15634  0.57935  0.22591  1.0000
  C   C175      1.0  0.99918  0.83942  0.06781  1.0000
  H   H282      1.0  0.16839  0.53220  0.21467  1.0000
  H   H283      1.0  0.14252  0.54026  0.19143  1.0000
  H   H284      1.0  0.11814  0.96941  0.03987  1.0000
  C   C176      1.0  0.14500  0.91494  0.36253  1.0000
  H   H285      1.0  0.17742  0.49140  0.17712  1.0000
  H   H286      1.0  0.20663  0.54697  0.16396  1.0000
  H   H287      1.0  0.17526  0.55844  0.12703  1.0000
  H   H288      1.0  0.08909  0.92141  0.43078  1.0000
  H   H289      1.0  0.12943  0.55171  0.14249  1.0000
  H   H290      1.0  0.13166  0.52730  0.11253  1.0000
  H   H291      1.0  0.18736  0.57121  0.19675  1.0000
  H   H292      1.0  0.16078  0.57847  0.17241  1.0000
  C   C177      1.0  0.21404  0.96862  0.21280  1.0000
  H   H293      1.0  0.02746  0.75412  0.39885  1.0000
  C   C178      1.0  0.15819  0.87821  0.25502  1.0000
  H   H294      1.0  0.11570  0.56400  0.08632  1.0000
  C   C179      1.0  0.22387  0.91569  0.33953  1.0000
  C   C180      1.0  0.01186  0.96085  0.35384  1.0000
  H   H295      1.0  0.06231  0.49726  0.48103  1.0000
  H   H296      1.0  0.97741  0.48408  0.07962  1.0000
  H   H297      1.0  0.14177  0.58020  0.09871  1.0000
  H   H298      1.0  0.14437  0.55576  0.06848  1.0000
  H   H299      1.0  0.16379  0.57063  0.24895  1.0000
  H   H300      1.0  0.16017  0.59877  0.22726  1.0000
  H   H301      1.0  0.13662  0.57735  0.22521  1.0000
  H   H302      1.0  0.00408  0.88792  0.34101  1.0000
  H   H303      1.0  0.06427  0.74724  0.08777  1.0000
  H   H304      1.0  0.02267  0.92407  0.35093  1.0000
  C   C181      1.0  0.00759  0.93515  0.34028  1.0000
  C   C182      1.0  0.08639  0.94704  0.04138  1.0000
  C   C183      1.0  0.98927  0.71430  0.99753  1.0000
  C   C184      1.0  0.03618  0.76858  0.06112  1.0000
  H   H305      1.0  0.20420  0.93195  0.21901  1.0000
  C   C185      1.0  0.08650  0.80862  0.02771  1.0000
  C   C186      1.0  0.10377  0.80300  0.99883  1.0000
  H   H306      1.0  0.03306  0.53430  0.29335  1.0000
  H   H307      1.0  0.05295  0.61898  0.19043  1.0000
  H   H308      1.0  0.19240  0.89274  0.29751  1.0000
  H   H309      1.0  0.24071  0.94218  0.15414  1.0000
  H   H310      1.0  0.14858  0.93719  0.04021  1.0000
  H   H311      1.0  0.02007  0.72235  0.05836  1.0000
  C   C187      1.0  0.13912  0.89727  0.39041  1.0000
  C   C188      1.0  0.12719  0.76507  0.38709  1.0000
  H   H312      1.0  0.02576  0.60475  0.23498  1.0000
  C   C189      1.0  0.16550  0.50244  0.16024  1.0000
  H   H313      1.0  0.04224  0.82869  0.04741  1.0000
  N   N12       1.0  0.06754  0.96144  0.02243  1.0000
  C   C190      1.0  0.98905  0.71233  0.46924  1.0000
  H   H314      1.0  0.01388  0.81037  0.09705  1.0000
  H   H315      1.0  0.07950  0.90553  0.46748  1.0000
  H   H316      1.0  0.99125  0.92842  0.35252  1.0000
  C   C191      1.0  0.03414  0.62581  0.19191  1.0000
  H   H317      1.0  0.04926  0.93597  0.44945  1.0000
  H   H318      1.0  0.03971  0.78133  0.32965  1.0000
  H   H319      1.0  0.13332  0.91095  0.34076  1.0000
  S   S46       1.0  0.98996  0.78343  0.44274  1.0000
  H   H320      1.0  0.10563  0.60834  0.49078  1.0000
  H   H321      1.0  0.99977  0.52117  0.10025  1.0000
  C   C192      1.0  0.16379  0.94726  0.31413  1.0000
  H   H322      1.0  0.03639  0.96690  0.20302  1.0000
  S   S47       1.0  0.99424  0.59587  0.00287  1.0000
  C   C193      1.0  0.05077  0.74498  0.06746  1.0000
  H   H323      1.0  0.25147  0.50343  0.12778  1.0000
  H   H324      1.0  0.04361  0.53670  0.23289  1.0000
  H   H325      1.0  0.07874  0.78611  0.09662  1.0000
  H   H326      1.0  0.17385  0.53042  0.10649  1.0000
  H   H327      1.0  0.12948  0.74945  0.36983  1.0000
  H   H328      1.0  0.03205  0.86024  0.31064  1.0000
  H   H329      1.0  0.05100  0.74942  0.36931  1.0000
  S   S48       1.0  0.02923  0.88290  0.02077  1.0000
  C   C194      1.0  0.08517  0.92323  0.45807  1.0000
  C   C195      1.0  0.06962  0.78756  0.03364  1.0000
  C   C196      1.0  0.21822  0.94475  0.22247  1.0000
  H   H330      1.0  0.13828  0.50026  0.19936  1.0000
  N   N13       1.0  0.05036  0.79133  0.05980  1.0000
  H   H331      1.0  0.04250  0.77457  0.45586  1.0000
  H   H332      1.0  0.03086  0.68682  0.44677  1.0000
  H   H333      1.0  0.08168  0.77219  0.04043  1.0000
  H   H334      1.0  0.01382  0.55519  0.13171  1.0000
  H   H335      1.0  0.21270  0.52214  0.11331  1.0000
  H   H336      1.0  0.04867  0.94811  0.08848  1.0000
  C   C197      1.0  0.21456  0.51383  0.13857  1.0000
  C   C198      1.0  0.04316  0.95415  0.03414  1.0000
  N   N14       1.0  0.17970  0.92557  0.32126  1.0000
  H   H337      1.0  0.13981  0.93324  0.37151  1.0000
  H   H338      1.0  0.08323  0.84413  0.14166  1.0000
  H   H339      1.0  0.11971  0.89866  0.39618  1.0000
  C   C199      1.0  0.22770  0.49939  0.25195  1.0000
  C   C200      1.0  0.13407  0.50523  0.42474  1.0000
  H   H340      1.0  0.13548  0.78083  0.37529  1.0000
  H   H341      1.0  0.03276  0.79596  0.40386  1.0000
  C   C201      1.0  0.04306  0.54972  0.28353  1.0000
  H   H342      1.0  0.02620  0.72831  0.10235  1.0000
  H   H343      1.0  0.98237  0.84043  0.08258  1.0000
  H   H344      1.0  0.06136  0.78278  0.00900  1.0000
  H   H345      1.0  0.09063  0.52561  0.44681  1.0000
  Fe  Fe22      1.0  0.03174  0.58024  0.00249  1.0000
  C   C202      1.0  0.04330  0.78658  0.38397  1.0000
  H   H346      1.0  0.11506  0.95056  0.00329  1.0000
  S   S49       1.0  0.14825  0.49205  0.33469  1.0000
  H   H347      1.0  0.98274  0.55154  0.14098  1.0000
  H   H348      1.0  0.27687  0.48955  0.35194  1.0000
  C   C203      1.0  0.24864  0.92670  0.34165  1.0000
  H   H349      1.0  0.99080  0.48700  0.31821  1.0000
  H   H350      1.0  0.07317  0.81568  0.15688  1.0000
  C   C204      1.0  0.06528  0.82273  0.10388  1.0000
  C   C205      1.0  0.03331  0.81118  0.04849  1.0000
  H   H351      1.0  0.09246  0.77497  0.36850  1.0000
  C   C206      1.0  0.01027  0.81419  0.07007  1.0000
  S   S50       1.0  0.19903  0.51043  0.26625  1.0000
  N   N15       1.0  0.00354  0.56405  0.20353  1.0000
  C   C207      1.0  0.01076  0.55885  0.23958  1.0000
  S   S51       1.0  0.98495  0.85489  0.47172  1.0000
  C   C208      1.0  0.00760  0.54165  0.18278  1.0000
  C   C209      1.0  0.01817  0.58376  0.18888  1.0000
  H   H352      1.0  0.07630  0.82515  0.02112  1.0000
  C   C210      1.0  0.03781  0.55339  0.24602  1.0000
  C   C211      1.0  0.00094  0.54370  0.14488  1.0000
  H   H353      1.0  0.29863  0.93530  0.10828  1.0000
  C   C212      1.0  0.17959  0.90783  0.29246  1.0000
  H   H354      1.0  0.14942  0.90127  0.41371  1.0000
  H   H355      1.0  0.06010  0.73925  0.04399  1.0000
  S   S52       1.0  0.99596  0.66678  0.01644  1.0000
  H   H356      1.0  0.07112  0.95904  0.45166  1.0000
  H   H357      1.0  0.22556  0.89965  0.32306  1.0000
  H   H358      1.0  0.25064  0.91476  0.13392  1.0000
  H   H359      1.0  0.03818  0.56612  0.29819  1.0000
  H   H360      1.0  0.99672  0.80133  0.06105  1.0000
  H   H361      1.0  0.02680  0.53608  0.18336  1.0000
  H   H362      1.0  0.03694  0.57743  0.18508  1.0000
  C   C213      1.0  0.05497  0.72917  0.43584  1.0000
  H   H363      1.0  0.15174  0.50898  0.41354  1.0000
  H   H364      1.0  0.29501  0.90670  0.12611  1.0000
  H   H365      1.0  0.24815  0.53148  0.15029  1.0000
  H   H366      1.0  0.04907  0.56820  0.23739  1.0000
  H   H367      1.0  0.21918  0.90974  0.36523  1.0000
  H   H368      1.0  0.04101  0.93456  0.03064  1.0000
  H   H369      1.0  0.09932  0.81702  0.13013  1.0000
  H   H370      1.0  0.03286  0.71312  0.39586  1.0000
  H   H371      1.0  0.02601  0.76609  0.03711  1.0000
  Fe  Fe23      1.0  0.98856  0.87605  0.42377  1.0000
  C   C214      1.0  0.27922  0.93631  0.15496  1.0000
  H   H372      1.0  0.18090  0.92281  0.37580  1.0000
  H   H373      1.0  0.29501  0.54754  0.28193  1.0000
  S   S53       1.0  0.01916  0.56714  0.44779  1.0000
  C   C215      1.0  0.08824  0.74870  0.40863  1.0000
  C   C216      1.0  0.24117  0.51308  0.14772  1.0000
  H   H374      1.0  0.06301  0.59440  0.44451  1.0000
  C   C217      1.0  0.00194  0.51911  0.12789  1.0000
  H   H375      1.0  0.09491  0.76202  0.47630  1.0000
  H   H376      1.0  0.12811  0.93271  0.07427  1.0000
  H   H377      1.0  0.07950  0.86693  0.01541  1.0000
  H   H378      1.0  0.12604  0.50813  0.15915  1.0000
  H   H379      1.0  0.14275  0.51984  0.47320  1.0000
  H   H380      1.0  0.14031  0.87157  0.24765  1.0000
  H   H381      1.0  0.98216  0.69608  0.45828  1.0000
  C   C218      1.0  0.08122  0.82488  0.13510  1.0000
  H   H382      1.0  0.14324  0.87858  0.38212  1.0000
  H   H383      1.0  0.16768  0.95241  0.25957  1.0000
  C   C219      1.0  0.20506  0.93413  0.32545  1.0000
  H   H384      1.0  0.20504  0.52152  0.19054  1.0000
  H   H385      1.0  0.25466  0.93226  0.31627  1.0000
  H   H386      1.0  0.01156  0.78320  0.35228  1.0000
  H   H387      1.0  0.01406  0.95571  0.46712  1.0000
  H   H388      1.0  0.20531  0.95020  0.34229  1.0000
  H   H389      1.0  0.99806  0.52630  0.19382  1.0000
  H   H390      1.0  0.12023  0.50708  0.40462  1.0000
  C   C220      1.0  0.00212  0.88604  0.31328  1.0000
  H   H391      1.0  0.09991  0.74130  0.42907  1.0000
  H   H392      1.0  0.11552  0.78727  0.00508  1.0000
  H   H393      1.0  0.13092  0.54123  0.44339  1.0000
  C   C221      1.0  0.02992  0.79032  0.35065  1.0000
  H   H394      1.0  0.17867  0.89488  0.35444  1.0000
  C   C222      1.0  0.01671  0.94961  0.49356  1.0000
  H   H395      1.0  0.00014  0.61552  0.21117  1.0000
  H   H396      1.0  0.25438  0.94336  0.11328  1.0000
  C   C223      1.0  0.01846  0.60754  0.20921  1.0000
  C   C224      1.0  0.17033  0.96267  0.28326  1.0000
  C   C225      1.0  0.27372  0.48394  0.22769  1.0000
  C   C226      1.0  0.01284  0.86155  0.30339  1.0000
  H   H397      1.0  0.99124  0.95833  0.40008  1.0000
  H   H398      1.0  0.00800  0.95620  0.10658  1.0000
  C   C227      1.0  0.15552  0.89600  0.28431  1.0000
  H   H399      1.0  0.09957  0.78654  0.41003  1.0000
  C   C228      1.0  0.03754  0.96729  0.23098  1.0000
  H   H400      1.0  0.99832  0.48173  0.24630  1.0000
  H   H401      1.0  0.03845  0.73213  0.45092  1.0000
  H   H402      1.0  0.99866  0.48606  0.41179  1.0000
  H   H403      1.0  0.14492  0.94217  0.30998  1.0000
  C   C229      1.0  0.00583  0.69486  0.00005  1.0000
  H   H404      1.0  0.14162  0.90967  0.27746  1.0000
  H   H405      1.0  0.00116  0.54308  0.24910  1.0000
  Fe  Fe24      1.0  0.14822  0.96374  0.18790  1.0000
  H   H406      1.0  0.00683  0.93561  0.07154  1.0000
  H   H407      1.0  0.18903  0.96877  0.28426  1.0000
  H   H408      1.0  0.28183  0.95567  0.15979  1.0000
  H   H409      1.0  0.05659  0.96465  0.23848  1.0000
  H   H410      1.0  0.29504  0.50736  0.31115  1.0000
  S   S54       1.0  0.12823  0.96069  0.13802  1.0000
  C   C230      1.0  0.04569  0.68502  0.42839  1.0000
  C   C231      1.0  0.10065  0.77059  0.39334  1.0000
  C   C232      1.0  0.00984  0.96189  0.39220  1.0000
  H   H411      1.0  0.20882  0.49498  0.13680  1.0000
  H   H412      1.0  0.10069  0.50014  0.47018  1.0000
  C   C233      1.0  0.07569  0.76559  0.48156  1.0000
  H   H413      1.0  0.08214  0.80279  0.49559  1.0000
  H   H414      1.0  0.06866  0.72186  0.45380  1.0000
  H   H415      1.0  0.01103  0.85847  0.27583  1.0000
  H   H416      1.0  0.06761  0.78893  0.43975  1.0000
  H   H417      1.0  0.97587  0.92277  0.48478  1.0000
  Fe  Fe25      1.0  0.02269  0.86589  0.48315  1.0000
  C   C234      1.0  0.98936  0.48673  0.38696  1.0000
  H   H418      1.0  0.01945  0.50988  0.13272  1.0000
  H   H419      1.0  0.99289  0.54075  0.00002  1.0000
  H   H420      1.0  0.04103  0.67094  0.40976  1.0000
  H   H421      1.0  0.01983  0.92979  0.49169  1.0000
  H   H422      1.0  0.01786  0.96766  0.29138  1.0000
  H   H423      1.0  0.06224  0.67911  0.44196  1.0000
  C   C235      1.0  0.06155  0.77134  0.44869  1.0000
  C   C236      1.0  0.01116  0.95421  0.07914  1.0000
  C   C237      1.0  0.11265  0.95145  0.03094  1.0000
  C   C238      1.0  0.97750  0.57197  0.20299  1.0000
  H   H424      1.0  0.13668  0.76124  0.41123  1.0000
  H   H425      1.0  0.97851  0.92724  0.26427  1.0000
  C   C239      1.0  0.29957  0.92548  0.13261  1.0000
  H   H426      1.0  0.02214  0.94837  0.40393  1.0000
  H   H427      1.0  0.29698  0.88895  0.17743  1.0000
  C   C240      1.0  0.10316  0.51976  0.46734  1.0000
  H   H428      1.0  0.98721  0.50802  0.13734  1.0000
  H   H429      1.0  0.02374  0.51968  0.48799  1.0000
  H   H430      1.0  0.16777  0.49475  0.13448  1.0000
  H   H431      1.0  0.06150  0.54247  0.48276  1.0000
  H   H432      1.0  0.99484  0.84402  0.04129  1.0000
  H   H433      1.0  0.99091  0.50512  0.37668  1.0000
  C   C241      1.0  0.12985  0.93284  0.04646  1.0000
  H   H434      1.0  0.98275  0.88585  0.30708  1.0000
  H   H435      1.0  0.08554  0.95108  0.06886  1.0000
  H   H436      1.0  0.16358  0.95932  0.33663  1.0000
  C   C242      1.0  0.03730  0.95944  0.07161  1.0000
  H   H437      1.0  0.99897  0.97415  0.34313  1.0000
  H   H438      1.0  0.99149  0.97456  0.15615  1.0000
  H   H439      1.0  0.06825  0.74981  0.49439  1.0000
  H   H440      1.0  0.22800  0.57790  0.84737  1.0000
  H   H441      1.0  0.14087  0.52168  0.66892  1.0000
  S   S55       1.0  0.05279  0.83216  0.95359  1.0000
  C   C243      1.0  0.98305  0.52951  0.98171  1.0000
  N   N16       1.0  0.20049  0.55131  0.84489  1.0000
  S   S56       1.0  0.01401  0.82281  0.89274  1.0000
  Fe  Fe26      1.0  0.02094  0.80854  0.94537  1.0000
  H   H442      1.0  0.20809  0.96512  0.82174  1.0000
  Fe  Fe27      1.0  0.04425  0.84782  0.90268  1.0000
  S   S57       1.0  0.07354  0.85075  0.86374  1.0000
  S   S58       1.0  0.04193  0.55197  0.96307  1.0000
  S   S59       1.0  0.02103  0.87786  0.92322  1.0000
  H   H443      1.0  0.07757  0.87694  0.51789  1.0000
  H   H444      1.0  0.16841  0.50467  0.62413  1.0000
  Fe  Fe28      1.0  0.11959  0.94224  0.65442  1.0000
  S   S60       1.0  0.08552  0.95489  0.67930  1.0000
  S   S61       1.0  0.12132  0.91708  0.60918  1.0000
  Fe  Fe29      1.0  0.10602  0.95058  0.72790  1.0000
  S   S62       1.0  0.08784  0.94506  0.77827  1.0000
  H   H445      1.0  0.03549  0.48805  0.78342  1.0000
  S   S63       1.0  0.13908  0.93452  0.70361  1.0000
  Fe  Fe30      1.0  0.11033  0.50354  0.73681  1.0000
  S   S64       1.0  0.13633  0.53006  0.75666  1.0000
  S   S65       1.0  0.08788  0.50441  0.68877  1.0000
  Fe  Fe31      1.0  0.12128  0.52221  0.80770  1.0000
  S   S66       1.0  0.11507  0.55454  0.84181  1.0000
  C   C244      1.0  0.27043  0.50707  0.71926  1.0000
  S   S67       1.0  0.09293  0.49821  0.78710  1.0000
  Fe  Fe32      1.0  0.00508  0.64205  0.52476  1.0000
  H   H446      1.0  0.13387  0.91866  0.90559  1.0000
  Fe  Fe33      1.0  0.03084  0.60173  0.56509  1.0000
  S   S68       1.0  0.00954  0.57223  0.54199  1.0000
  S   S69       1.0  0.06154  0.59734  0.60253  1.0000
  C   C245      1.0  0.99606  0.73690  0.98510  1.0000
  H   H447      1.0  0.98784  0.82776  0.81211  1.0000
  S   S70       1.0  0.03866  0.61963  0.51570  1.0000
  S   S71       1.0  0.99862  0.62556  0.57590  1.0000
  C   C246      1.0  0.10995  0.51991  0.52820  1.0000
  C   C247      1.0  0.24785  0.94238  0.72218  1.0000
  C   C248      1.0  0.22417  0.95090  0.71638  1.0000
  S   S72       1.0  0.02946  0.76881  0.95911  1.0000
  C   C249      1.0  0.09636  0.55308  0.87736  1.0000
  C   C250      1.0  0.08491  0.53195  0.88567  1.0000
  C   C251      1.0  0.06919  0.53167  0.91317  1.0000
  C   C252      1.0  0.06474  0.55247  0.93252  1.0000
  C   C253      1.0  0.07663  0.57346  0.92470  1.0000
  C   C254      1.0  0.09237  0.57374  0.89713  1.0000
  H   H448      1.0  0.08795  0.51591  0.87071  1.0000
  H   H449      1.0  0.06011  0.51534  0.91915  1.0000
  H   H450      1.0  0.07319  0.58961  0.93927  1.0000
  H   H451      1.0  0.10117  0.59016  0.89079  1.0000
  C   C255      1.0  0.07968  0.53083  0.66661  1.0000
  C   C256      1.0  0.09112  0.55246  0.67248  1.0000
  C   C257      1.0  0.08520  0.57269  0.65277  1.0000
  C   C258      1.0  0.06754  0.57163  0.62745  1.0000
  C   C259      1.0  0.05580  0.55009  0.62194  1.0000
  C   C260      1.0  0.06205  0.52972  0.64124  1.0000
  H   H452      1.0  0.10481  0.55351  0.69179  1.0000
  H   H453      1.0  0.09438  0.58929  0.65714  1.0000
  H   H454      1.0  0.04221  0.54904  0.60250  1.0000
  H   H455      1.0  0.05325  0.51299  0.63647  1.0000
  H   H456      1.0  0.00986  0.50793  0.61603  1.0000
  H   H457      1.0  0.28337  0.96822  0.62091  1.0000
  H   H458      1.0  0.16388  0.53947  0.84358  1.0000
  Fe  Fe34      1.0  0.99114  0.85217  0.91668  1.0000
  H   H459      1.0  0.04714  0.53078  0.79312  1.0000
  H   H460      1.0  0.05377  0.93489  0.92443  1.0000
  C   C261      1.0  0.08314  0.91816  0.80012  1.0000
  C   C262      1.0  0.06774  0.91878  0.82795  1.0000
  C   C263      1.0  0.06426  0.89811  0.84724  1.0000
  C   C264      1.0  0.07663  0.87678  0.83928  1.0000
  C   C265      1.0  0.09212  0.87616  0.81149  1.0000
  C   C266      1.0  0.09516  0.89671  0.79168  1.0000
  H   H461      1.0  0.05844  0.93535  0.83463  1.0000
  H   H462      1.0  0.05229  0.89877  0.86851  1.0000
  H   H463      1.0  0.10164  0.85964  0.80513  1.0000
  H   H464      1.0  0.10692  0.89602  0.77015  1.0000
  C   C267      1.0  0.05351  0.89076  0.55582  1.0000
  C   C268      1.0  0.05185  0.90288  0.58684  1.0000
  C   C269      1.0  0.07246  0.91104  0.60334  1.0000
  C   C270      1.0  0.09501  0.90695  0.58913  1.0000
  C   C271      1.0  0.09675  0.89447  0.55832  1.0000
  C   C272      1.0  0.07608  0.88638  0.54167  1.0000
  H   H465      1.0  0.03447  0.90619  0.59804  1.0000
  H   H466      1.0  0.07090  0.92031  0.62719  1.0000
  H   H467      1.0  0.11417  0.89111  0.54729  1.0000
  H   H468      1.0  0.00210  0.83033  0.73434  1.0000
  H   H469      1.0  0.03111  0.60728  0.91820  1.0000
  H   H470      1.0  0.19221  0.52854  0.90864  1.0000
  H   H471      1.0  0.03143  0.60697  0.85535  1.0000
  C   C273      1.0  0.26455  0.95630  0.73983  1.0000
  H   H472      1.0  0.98817  0.52126  0.64429  1.0000
  C   C274      1.0  0.21363  0.57069  0.86348  1.0000
  H   H473      1.0  0.21028  0.56186  0.91684  1.0000
  H   H474      1.0  0.98749  0.97125  0.51766  1.0000
  H   H475      1.0  0.02168  0.90108  0.78534  1.0000
  S   S73       1.0  0.20045  0.50912  0.75001  1.0000
  H   H476      1.0  0.16292  0.88985  0.72537  1.0000
  H   H477      1.0  0.21189  0.94027  0.70176  1.0000
  H   H478      1.0  0.01392  0.63191  0.90037  1.0000
  H   H479      1.0  0.98317  0.89714  0.85859  1.0000
  C   C275      1.0  0.15993  0.52674  0.66693  1.0000
  N   N17       1.0  0.16677  0.93195  0.81337  1.0000
  H   H480      1.0  0.16906  0.56224  0.87369  1.0000
  C   C276      1.0  0.07402  0.78658  0.50642  1.0000
  H   H481      1.0  0.08160  0.55761  0.78449  1.0000
  H   H482      1.0  0.25607  0.58623  0.89402  1.0000
  H   H483      1.0  0.18605  0.54613  0.79477  1.0000
  H   H484      1.0  0.05504  0.79077  0.51286  1.0000
  H   H485      1.0  0.04486  0.87812  0.78286  1.0000
  C   C277      1.0  0.23026  0.49848  0.74079  1.0000
  S   S74       1.0  0.29481  0.94542  0.74313  1.0000
  H   H486      1.0  0.01258  0.50522  0.97270  1.0000
  S   S75       1.0  0.99541  0.83587  0.96850  1.0000
  C   C278      1.0  0.28160  0.97481  0.64734  1.0000
  C   C279      1.0  0.07076  0.92762  0.93542  1.0000
  C   C280      1.0  0.03579  0.96226  0.54733  1.0000
  Fe  Fe35      1.0  0.16214  0.49893  0.76588  1.0000
  C   C281      1.0  0.07062  0.93007  0.97381  1.0000
  H   H487      1.0  0.08643  0.53243  0.56978  1.0000
  H   H488      1.0  0.15898  0.60560  0.77163  1.0000
  H   H489      1.0  0.16390  0.57514  0.75765  1.0000
  H   H490      1.0  0.12961  0.52013  0.52444  1.0000
  H   H491      1.0  0.21063  0.56575  0.79638  1.0000
  C   C282      1.0  0.17185  0.59010  0.77210  1.0000
  H   H492      1.0  0.23688  0.53595  0.79513  1.0000
  C   C283      1.0  0.23521  0.93872  0.83374  1.0000
  C   C284      1.0  0.25490  0.50830  0.82334  1.0000
  H   H493      1.0  0.24100  0.53286  0.72238  1.0000
  H   H494      1.0  0.05308  0.96482  0.97187  1.0000
  H   H495      1.0  0.00020  0.79015  0.70951  1.0000
  H   H496      1.0  0.02823  0.55096  0.76905  1.0000
  H   H497      1.0  0.20281  0.90808  0.77168  1.0000
  H   H498      1.0  0.23919  0.95044  0.64535  1.0000
  H   H499      1.0  0.06428  0.54203  0.52694  1.0000
  H   H500      1.0  0.08608  0.93719  0.92453  1.0000
  C   C285      1.0  0.99375  0.50406  0.98132  1.0000
  H   H501      1.0  0.99938  0.48687  0.86080  1.0000
  H   H502      1.0  0.99345  0.80841  0.76527  1.0000
  H   H503      1.0  0.99601  0.49252  0.55928  1.0000
  H   H504      1.0  0.08382  0.78186  0.53000  1.0000
  H   H505      1.0  0.97781  0.80982  0.69085  1.0000
  H   H506      1.0  0.98388  0.91811  0.95292  1.0000
  H   H507      1.0  0.23461  0.94185  0.86139  1.0000
  H   H508      1.0  0.16745  0.89398  0.80132  1.0000
  H   H509      1.0  0.98911  0.52798  0.88273  1.0000
  H   H510      1.0  0.07336  0.58079  0.50639  1.0000
  H   H511      1.0  0.02757  0.51853  0.53336  1.0000
  C   C286      1.0  0.14552  0.90486  0.85663  1.0000
  H   H512      1.0  0.06248  0.57768  0.76003  1.0000
  H   H513      1.0  0.08451  0.96608  0.97379  1.0000
  C   C287      1.0  0.16549  0.91152  0.78835  1.0000
  H   H514      1.0  0.07662  0.95391  0.51214  1.0000
  H   H515      1.0  0.01300  0.52059  0.82597  1.0000
  H   H516      1.0  0.13962  0.51974  0.89020  1.0000
  H   H517      1.0  0.19367  0.51257  0.64992  1.0000
  H   H518      1.0  0.11520  0.81867  0.99440  1.0000
  C   C288      1.0  0.15413  0.52455  0.90806  1.0000
  C   C289      1.0  0.10411  0.60180  0.51705  1.0000
  H   H519      1.0  0.98375  0.87555  0.74894  1.0000
  H   H520      1.0  0.01330  0.77124  0.50801  1.0000
  C   C290      1.0  0.00151  0.71119  0.49997  1.0000
  H   H521      1.0  0.18400  0.92712  0.74516  1.0000
  H   H522      1.0  0.97641  0.95441  0.91680  1.0000
  C   C291      1.0  0.11638  0.51317  0.59070  1.0000
  H   H523      1.0  0.10977  0.91207  0.87654  1.0000
  H   H524      1.0  0.05515  0.92007  0.98317  1.0000
  H   H525      1.0  0.01775  0.52914  0.90274  1.0000
  C   C292      1.0  0.21122  0.94564  0.81738  1.0000
  H   H526      1.0  0.01982  0.73227  0.53734  1.0000
  H   H527      1.0  0.98464  0.53764  0.95637  1.0000
  C   C293      1.0  0.00807  0.52222  0.88033  1.0000
  H   H528      1.0  0.02842  0.48849  0.88124  1.0000
  C   C294      1.0  0.06540  0.55881  0.76819  1.0000
  H   H529      1.0  0.13934  0.89063  0.83918  1.0000
  S   S76       1.0  0.98166  0.61513  0.49862  1.0000
  H   H530      1.0  0.12223  0.59993  0.52857  1.0000
  N   N18       1.0  0.01710  0.55795  0.83982  1.0000
  C   C295      1.0  0.01745  0.57240  0.87209  1.0000
  C   C296      1.0  0.01976  0.53143  0.84751  1.0000
  C   C297      1.0  0.03852  0.56503  0.81926  1.0000
  C   C298      1.0  0.99487  0.56320  0.81908  1.0000
  H   H531      1.0  0.10561  0.50056  0.52806  1.0000
  H   H532      1.0  0.00292  0.56731  0.88935  1.0000
  H   H533      1.0  0.23985  0.91958  0.82860  1.0000
  H   H534      1.0  0.07254  0.90835  0.92833  1.0000
  H   H535      1.0  0.19673  0.91216  0.83542  1.0000
  H   H536      1.0  0.03908  0.52620  0.85025  1.0000
  H   H537      1.0  0.21986  0.52015  0.86493  1.0000
  H   H538      1.0  0.06868  0.54753  0.74544  1.0000
  H   H539      1.0  0.03424  0.56819  0.88611  1.0000
  C   C299      1.0  0.12774  0.90609  0.88575  1.0000
  C   C300      1.0  0.23987  0.53157  0.82208  1.0000
  H   H540      1.0  0.01609  0.84651  0.78015  1.0000
  H   H541      1.0  0.05510  0.56412  0.83509  1.0000
  H   H542      1.0  0.03659  0.58397  0.81084  1.0000
  H   H543      1.0  0.99502  0.58187  0.80930  1.0000
  H   H544      1.0  0.99463  0.55163  0.79621  1.0000
  H   H545      1.0  0.99392  0.71090  0.58582  1.0000
  H   H546      1.0  0.98330  0.96792  0.86552  1.0000
  H   H547      1.0  0.12609  0.88801  0.89700  1.0000
  C   C301      1.0  0.98320  0.86980  0.77577  1.0000
  C   C302      1.0  0.24074  0.58375  0.91124  1.0000
  C   C303      1.0  0.99228  0.95235  0.51182  1.0000
  H   H548      1.0  0.12474  0.55937  0.50348  1.0000
  C   C304      1.0  0.10570  0.53001  0.56410  1.0000
  C   C305      1.0  0.22468  0.56392  0.89809  1.0000
  C   C306      1.0  0.19427  0.56058  0.81009  1.0000
  Fe  Fe36      1.0  0.02694  0.86002  0.97341  1.0000
  C   C307      1.0  0.00655  0.75496  0.49695  1.0000
  Fe  Fe37      1.0  0.97768  0.59700  0.54909  1.0000
  H   H549      1.0  0.14753  0.91169  0.77589  1.0000
  H   H550      1.0  0.97657  0.52914  0.58596  1.0000
  C   C308      1.0  0.01962  0.74052  0.97478  1.0000
  H   H551      1.0  0.10653  0.49613  0.59116  1.0000
  C   C309      1.0  0.17727  0.54569  0.86236  1.0000
  H   H552      1.0  0.15532  0.51055  0.92784  1.0000
  C   C310      1.0  0.01016  0.73274  0.51362  1.0000
  C   C311      1.0  0.98335  0.80053  0.71445  1.0000
  H   H553      1.0  0.08894  0.57287  0.54428  1.0000
  H   H554      1.0  0.25345  0.92506  0.71219  1.0000
  H   H555      1.0  0.19443  0.88974  0.71611  1.0000
  C   C312      1.0  0.06011  0.94610  0.50135  1.0000
  C   C313      1.0  0.01562  0.60004  0.86857  1.0000
  C   C314      1.0  0.24668  0.51451  0.72709  1.0000
  H   H556      1.0  0.23583  0.54725  0.89685  1.0000
  H   H557      1.0  0.09366  0.61532  0.53189  1.0000
  C   C315      1.0  0.99112  0.50701  0.62498  1.0000
  C   C316      1.0  0.27818  0.48334  0.72486  1.0000
  C   C317      1.0  0.18112  0.88927  0.73676  1.0000
  H   H558      1.0  0.18863  0.59542  0.75962  1.0000
  H   H559      1.0  0.25065  0.54583  0.83377  1.0000
  H   H560      1.0  0.24794  0.57878  0.93647  1.0000
  H   H561      1.0  0.17674  0.95877  0.77689  1.0000
  C   C318      1.0  0.07025  0.53242  0.50383  1.0000
  H   H562      1.0  0.14586  0.95437  0.77921  1.0000
  H   H563      1.0  0.07266  0.95895  0.56696  1.0000
  H   H564      1.0  0.16334  0.89944  0.86691  1.0000
  H   H565      1.0  0.16079  0.54331  0.65167  1.0000
  H   H566      1.0  0.24953  0.94980  0.82297  1.0000
  H   H567      1.0  0.00157  0.48871  0.90599  1.0000
  H   H568      1.0  0.99289  0.94220  0.53587  1.0000
  N   N19       1.0  0.09710  0.53283  0.49982  1.0000
  C   C319      1.0  0.21565  0.52873  0.84040  1.0000
  C   C320      1.0  0.17486  0.50664  0.65038  1.0000
  C   C321      1.0  0.03199  0.50938  0.50918  1.0000
  H   H569      1.0  0.98375  0.49339  0.96256  1.0000
  H   H570      1.0  0.03264  0.94388  0.55691  1.0000
  C   C322      1.0  0.04354  0.54989  0.78691  1.0000
  H   H571      1.0  0.14710  0.94335  0.85783  1.0000
  C   C323      1.0  0.00920  0.86436  0.78812  1.0000
  C   C324      1.0  0.97718  0.49155  0.56803  1.0000
  H   H572      1.0  0.21318  0.94308  0.78992  1.0000
  C   C325      1.0  0.06903  0.95683  0.98491  1.0000
  H   H573      1.0  0.18368  0.87212  0.75057  1.0000
  S   S77       1.0  0.00666  0.68362  0.52250  1.0000
  C   C326      1.0  0.17682  0.58269  0.80856  1.0000
  H   H574      1.0  0.11486  0.52172  0.61593  1.0000
  C   C327      1.0  0.14647  0.92922  0.83800  1.0000
  S   S78       1.0  0.14833  0.49258  0.81849  1.0000
  H   H575      1.0  0.13560  0.50937  0.58556  1.0000
  H   H576      1.0  0.15939  0.57876  0.82027  1.0000
  H   H577      1.0  0.28267  0.51961  0.70851  1.0000
  H   H578      1.0  0.12890  0.93203  0.82494  1.0000
  C   C328      1.0  0.16234  0.95534  0.79513  1.0000
  H   H579      1.0  0.99914  0.60564  0.85470  1.0000
  H   H580      1.0  0.20531  0.51514  0.82605  1.0000
  C   C329      1.0  0.19036  0.93112  0.83238  1.0000
  H   H581      1.0  0.00995  0.86492  0.81614  1.0000
  H   H582      1.0  0.98306  0.51930  0.51575  1.0000
  H   H583      1.0  0.16701  0.53066  0.69254  1.0000
  H   H584      1.0  0.23042  0.60096  0.91366  1.0000
  H   H585      1.0  0.05855  0.92823  0.51326  1.0000
  C   C330      1.0  0.03624  0.72115  0.97751  1.0000
  H   H586      1.0  0.18447  0.59838  0.82160  1.0000
  H   H587      1.0  0.18140  0.50799  0.87766  1.0000
  C   C331      1.0  0.18471  0.91060  0.76048  1.0000
  H   H588      1.0  0.04418  0.95976  0.61586  1.0000
  H   H589      1.0  0.99877  0.60661  0.91746  1.0000
  H   H590      1.0  0.23933  0.96874  0.60778  1.0000
  C   C332      1.0  0.01480  0.61212  0.90327  1.0000
  C   C333      1.0  0.00946  0.49488  0.88206  1.0000
  H   H591      1.0  0.14942  0.54200  0.92022  1.0000
  H   H592      1.0  0.04947  0.96480  0.73334  1.0000
  H   H593      1.0  0.20140  0.58631  0.86852  1.0000
  H   H594      1.0  0.27109  0.51004  0.80750  1.0000
  H   H595      1.0  0.09379  0.79912  0.97519  1.0000
  S   S79       1.0  0.02674  0.88291  0.53499  1.0000
  C   C334      1.0  0.02634  0.88303  0.77497  1.0000
  H   H596      1.0  0.18804  0.93793  0.85862  1.0000
  H   H597      1.0  0.02593  0.88366  0.74701  1.0000
  H   H598      1.0  0.11471  0.54741  0.56705  1.0000
  C   C335      1.0  0.09142  0.57787  0.51766  1.0000
  C   C336      1.0  0.98752  0.81867  0.74276  1.0000
  H   H599      1.0  0.00935  0.97268  0.71184  1.0000
  H   H600      1.0  0.97699  0.79383  0.84806  1.0000
  C   C337      1.0  0.17801  0.52580  0.88964  1.0000
  H   H601      1.0  0.98298  0.75146  0.98334  1.0000
  N   N20       1.0  0.03823  0.96146  0.50949  1.0000
  C   C338      1.0  0.10534  0.55838  0.49707  1.0000
  H   H602      1.0  0.24450  0.49304  0.81350  1.0000
  C   C339      1.0  0.02946  0.69854  0.99000  1.0000
  H   H603      1.0  0.26069  0.50435  0.84959  1.0000
  C   C340      1.0  0.05906  0.50728  0.50484  1.0000
  H   H604      1.0  0.05453  0.72359  0.96975  1.0000
  H   H605      1.0  0.98838  0.48936  0.63702  1.0000
  H   H606      1.0  0.02435  0.49120  0.50932  1.0000
  H   H607      1.0  0.04251  0.68395  0.99178  1.0000
  H   H608      1.0  0.06635  0.49664  0.52626  1.0000
  H   H609      1.0  0.97765  0.88612  0.79020  1.0000
  C   C341      1.0  0.97756  0.72237  0.58917  1.0000
  C   C342      1.0  0.05740  0.97209  0.56739  1.0000
  H   H610      1.0  0.08726  0.92115  0.98340  1.0000
  H   H611      1.0  0.28222  0.95848  0.66355  1.0000
  H   H612      1.0  0.98100  0.74031  0.57845  1.0000
  H   H613      1.0  0.01979  0.97311  0.55485  1.0000
  C   C343      1.0  0.17290  0.48293  0.67026  1.0000
  H   H614      1.0  0.21590  0.48061  0.63801  1.0000
  C   C344      1.0  0.21682  0.97360  0.72805  1.0000
  H   H615      1.0  0.18018  0.48663  0.69568  1.0000
  Fe  Fe38      1.0  0.15202  0.97223  0.69912  1.0000
  H   H616      1.0  0.15360  0.47960  0.67444  1.0000
  C   C345      1.0  0.23726  0.96902  0.63559  1.0000
  Fe  Fe39      1.0  0.48605  0.08063  0.43000  1.0000
  S   S80       1.0  0.49666  0.11320  0.40076  1.0000
  S   S81       1.0  0.46749  0.04593  0.41481  1.0000
  H   H617      1.0  0.63518  0.03357  0.33783  1.0000
  S   S82       1.0  0.53295  0.12641  0.46442  1.0000
  H   H618      1.0  0.34867  0.44013  0.30038  1.0000
  Fe  Fe40      1.0  0.49476  0.13425  0.44976  1.0000
  S   S83       1.0  0.47950  0.17296  0.45011  1.0000
  Fe  Fe41      1.0  0.53419  0.10393  0.41708  1.0000
  S   S84       1.0  0.56314  0.10868  0.37809  1.0000
  H   H619      1.0  0.38133  0.98643  0.16953  1.0000
  S   S85       1.0  0.52413  0.07025  0.44351  1.0000
  Fe  Fe42      1.0  0.61865  0.03167  0.15970  1.0000
  S   S86       1.0  0.58464  0.02093  0.18447  1.0000
  S   S87       1.0  0.62040  0.06009  0.11933  1.0000
  Fe  Fe43      1.0  0.60645  0.01821  0.23196  1.0000
  S   S88       1.0  0.59094  0.01963  0.28481  1.0000
  C   C346      1.0  0.43802  0.44629  0.04093  1.0000
  S   S89       1.0  0.37740  0.02220  0.32128  1.0000
  Fe  Fe44      1.0  0.51896  0.09346  0.48924  1.0000
  Fe  Fe45      1.0  0.48970  0.35098  0.04695  1.0000
  S   S90       1.0  0.51382  0.32247  0.07047  1.0000
  S   S91       1.0  0.45183  0.36154  0.06381  1.0000
  H   H620      1.0  0.58663  0.10578  0.31366  1.0000
  C   C347      1.0  0.53046  0.99951  0.22974  1.0000
  S   S92       1.0  0.53053  0.38284  0.44203  1.0000
  Fe  Fe46      1.0  0.52292  0.31090  0.01722  1.0000
  C   C348      1.0  0.48599  0.05544  0.30614  1.0000
  Fe  Fe47      1.0  0.54250  0.34987  0.06544  1.0000
  S   S93       1.0  0.57156  0.35537  0.10502  1.0000
  H   H621      1.0  0.55643  0.45020  0.02888  1.0000
  S   S94       1.0  0.51782  0.37876  0.04552  1.0000
  Fe  Fe48      1.0  0.61670  0.42888  0.30795  1.0000
  S   S95       1.0  0.58329  0.44603  0.28738  1.0000
  S   S96       1.0  0.61608  0.39474  0.33897  1.0000
  Fe  Fe49      1.0  0.60431  0.45286  0.24080  1.0000
  S   S97       1.0  0.58359  0.45086  0.19125  1.0000
  H   H622      1.0  0.44098  0.99316  0.24475  1.0000
  C   C349      1.0  0.52122  0.98437  0.08651  1.0000
  S   S98       1.0  0.42303  0.44163  0.17289  1.0000
  H   H623      1.0  0.53996  0.12960  0.08331  1.0000
  C   C350      1.0  0.44428  0.38480  0.09292  1.0000
  C   C351      1.0  0.46161  0.39572  0.11298  1.0000
  C   C352      1.0  0.45473  0.41318  0.13710  1.0000
  C   C353      1.0  0.43058  0.42050  0.14076  1.0000
  C   C354      1.0  0.41333  0.41017  0.11995  1.0000
  C   C355      1.0  0.42014  0.39220  0.09645  1.0000
  H   H624      1.0  0.48022  0.39025  0.11050  1.0000
  H   H625      1.0  0.46821  0.42100  0.15314  1.0000
  H   H626      1.0  0.39467  0.41537  0.12277  1.0000
  H   H627      1.0  0.40660  0.38379  0.08114  1.0000
  C   C356      1.0  0.55434  0.38419  0.41298  1.0000
  C   C357      1.0  0.55105  0.39845  0.38422  1.0000
  C   C358      1.0  0.56991  0.40205  0.36175  1.0000
  C   C359      1.0  0.59207  0.39051  0.36699  1.0000
  C   C360      1.0  0.59510  0.37523  0.39486  1.0000
  C   C361      1.0  0.57640  0.37236  0.41814  1.0000
  H   H628      1.0  0.53378  0.40694  0.37943  1.0000
  H   H629      1.0  0.56720  0.41351  0.34017  1.0000
  H   H630      1.0  0.61216  0.36607  0.39891  1.0000
  H   H631      1.0  0.57911  0.36115  0.44006  1.0000
  C   C362      1.0  0.57499  0.38233  0.12798  1.0000
  C   C363      1.0  0.55895  0.40180  0.12433  1.0000
  C   C364      1.0  0.56209  0.42282  0.14345  1.0000
  C   C365      1.0  0.58099  0.42441  0.16684  1.0000
  C   C366      1.0  0.59708  0.40499  0.17040  1.0000
  C   C367      1.0  0.59417  0.38412  0.15084  1.0000
  H   H632      1.0  0.54399  0.40056  0.10706  1.0000
  H   H633      1.0  0.54955  0.43777  0.14058  1.0000
  H   H634      1.0  0.61181  0.40609  0.18813  1.0000
  H   H635      1.0  0.60668  0.36914  0.15378  1.0000
  C   C368      1.0  0.49162  0.19918  0.46905  1.0000
  H   H636      1.0  0.46788  0.22320  0.44164  1.0000
  H   H637      1.0  0.63705  0.35846  0.04696  1.0000
  S   S99       1.0  0.48034  0.10238  0.47752  1.0000
  H   H638      1.0  0.60029  0.35043  0.26556  1.0000
  C   C369      1.0  0.47590  0.14000  0.02782  1.0000
  H   H639      1.0  0.59332  0.36700  0.99983  1.0000
  H   H640      1.0  0.47112  0.05840  0.32450  1.0000
  S   S100      1.0  0.61740  0.97999  0.22177  1.0000
  H   H641      1.0  0.56801  0.98170  0.08869  1.0000
  C   C370      1.0  0.44268  0.04000  0.38805  1.0000
  C   C371      1.0  0.43705  0.01598  0.38140  1.0000
  C   C372      1.0  0.41756  0.01024  0.36035  1.0000
  C   C373      1.0  0.40307  0.02848  0.34631  1.0000
  C   C374      1.0  0.40887  0.05249  0.35276  1.0000
  C   C375      1.0  0.42865  0.05826  0.37332  1.0000
  H   H642      1.0  0.44791  0.00171  0.39241  1.0000
  H   H643      1.0  0.41358  0.99170  0.35528  1.0000
  H   H644      1.0  0.39782  0.06675  0.34201  1.0000
  H   H645      1.0  0.43274  0.07681  0.37820  1.0000
  C   C376      1.0  0.55449  0.07330  0.05179  1.0000
  C   C377      1.0  0.57738  0.07776  0.03970  1.0000
  C   C378      1.0  0.59752  0.07389  0.06070  1.0000
  C   C379      1.0  0.59490  0.06500  0.09350  1.0000
  C   C380      1.0  0.57197  0.06044  0.10538  1.0000
  C   C381      1.0  0.55186  0.06482  0.08474  1.0000
  H   H646      1.0  0.62495  0.43146  0.39082  1.0000
  H   H647      1.0  0.61522  0.07748  0.05135  1.0000
  H   H648      1.0  0.56969  0.05398  0.13072  1.0000
  H   H649      1.0  0.53417  0.06157  0.09435  1.0000
  C   C382      1.0  0.56956  0.08418  0.35097  1.0000
  C   C383      1.0  0.56323  0.06097  0.35969  1.0000
  C   C384      1.0  0.56980  0.04147  0.33892  1.0000
  C   C385      1.0  0.58212  0.04505  0.30874  1.0000
  C   C386      1.0  0.58773  0.06835  0.29930  1.0000
  C   C387      1.0  0.58180  0.08783  0.32067  1.0000
  H   H650      1.0  0.55363  0.05802  0.38276  1.0000
  H   H651      1.0  0.56537  0.02349  0.34634  1.0000
  H   H652      1.0  0.59693  0.07133  0.27587  1.0000
  C   C388      1.0  0.49179  0.24319  0.47367  1.0000
  H   H653      1.0  0.60605  0.01504  0.08015  1.0000
  N   N21       1.0  0.53539  0.38331  0.23392  1.0000
  C   C389      1.0  0.53712  0.41007  0.23868  1.0000
  C   C390      1.0  0.56019  0.37177  0.23217  1.0000
  C   C391      1.0  0.52283  0.37908  0.20059  1.0000
  C   C392      1.0  0.52080  0.37206  0.26122  1.0000
  C   C393      1.0  0.52969  0.37551  0.29791  1.0000
  C   C394      1.0  0.51322  0.42478  0.23812  1.0000
  C   C395      1.0  0.52270  0.35277  0.18757  1.0000
  C   C396      1.0  0.58044  0.38340  0.25325  1.0000
  C   C397      1.0  0.51195  0.36534  0.32297  1.0000
  H   H654      1.0  0.63122  0.43825  0.09947  1.0000
  C   C398      1.0  0.50928  0.35112  0.15400  1.0000
  H   H655      1.0  0.54859  0.41747  0.21862  1.0000
  H   H656      1.0  0.54624  0.41448  0.26266  1.0000
  H   H657      1.0  0.55958  0.35242  0.23885  1.0000
  H   H658      1.0  0.56693  0.37213  0.20585  1.0000
  H   H659      1.0  0.53106  0.39003  0.18053  1.0000
  H   H660      1.0  0.50371  0.38509  0.20188  1.0000
  H   H661      1.0  0.50180  0.37846  0.25966  1.0000
  H   H662      1.0  0.52015  0.35236  0.25733  1.0000
  H   H663      1.0  0.53183  0.39468  0.30438  1.0000
  H   H664      1.0  0.54695  0.36564  0.30179  1.0000
  H   H665      1.0  0.50439  0.42364  0.21305  1.0000
  H   H666      1.0  0.50077  0.41843  0.25762  1.0000
  H   H667      1.0  0.51366  0.34093  0.20557  1.0000
  H   H668      1.0  0.54113  0.34553  0.18332  1.0000
  H   H669      1.0  0.58493  0.40099  0.24227  1.0000
  H   H670      1.0  0.57540  0.38653  0.27983  1.0000
  C   C399      1.0  0.54179  0.14918  0.08809  1.0000
  H   H671      1.0  0.49451  0.37530  0.32153  1.0000
  H   H672      1.0  0.50911  0.34602  0.31786  1.0000
  H   H673      1.0  0.51912  0.36710  0.34902  1.0000
  H   H674      1.0  0.51057  0.02149  0.10057  1.0000
  H   H675      1.0  0.49935  0.46258  0.41969  1.0000
  S   S101      1.0  0.62967  0.46306  0.33096  1.0000
  H   H676      1.0  0.50923  0.33215  0.14541  1.0000
  H   H677      1.0  0.49040  0.35754  0.15669  1.0000
  H   H678      1.0  0.51818  0.36189  0.13445  1.0000
  H   H679      1.0  0.61656  0.44596  0.04126  1.0000
  H   H680      1.0  0.41591  0.99501  0.47344  1.0000
  C   C400      1.0  0.46825  0.01665  0.29483  1.0000
  H   H681      1.0  0.61561  0.14188  0.01287  1.0000
  H   H682      1.0  0.51664  0.20298  0.09090  1.0000
  C   C401      1.0  0.57269  0.41542  0.04180  1.0000
  H   H683      1.0  0.51014  0.06856  0.34567  1.0000
  H   H684      1.0  0.47944  0.06323  0.28191  1.0000
  N   N22       1.0  0.53717  0.98907  0.05681  1.0000
  H   H685      1.0  0.58827  0.16854  0.04455  1.0000
  H   H686      1.0  0.50587  0.15599  0.10966  1.0000
  C   C402      1.0  0.58719  0.45581  0.42152  1.0000
  H   H687      1.0  0.55002  0.23043  0.10129  1.0000
  H   H688      1.0  0.50930  0.98581  0.26988  1.0000
  H   H689      1.0  0.51839  0.02915  0.34169  1.0000
  H   H690      1.0  0.62393  0.46853  0.42711  1.0000
  H   H691      1.0  0.55494  0.19522  0.03631  1.0000
  C   C403      1.0  0.32885  0.44157  0.29950  1.0000
  H   H692      1.0  0.64051  0.17503  0.37576  1.0000
  H   H693      1.0  0.58244  0.42306  0.06360  1.0000
  H   H694      1.0  0.59593  0.01764  0.47668  1.0000
  H   H695      1.0  0.38032  0.99145  0.39678  1.0000
  H   H696      1.0  0.55145  0.15980  0.00470  1.0000
  C   C404      1.0  0.51757  0.45131  0.24489  1.0000
  H   H697      1.0  0.58229  0.98481  0.02495  1.0000
  H   H698      1.0  0.40170  0.46075  0.37119  1.0000
  H   H699      1.0  0.50318  0.45011  0.00344  1.0000
  H   H700      1.0  0.57955  0.08407  0.01422  1.0000
  H   H701      1.0  0.56602  0.39767  0.04898  1.0000
  H   H702      1.0  0.37277  0.97765  0.45380  1.0000
  H   H703      1.0  0.42154  0.00602  0.27675  1.0000
  H   H704      1.0  0.32130  0.43346  0.32239  1.0000
  C   C405      1.0  0.45280  0.02728  0.26566  1.0000
  C   C406      1.0  0.49472  0.02918  0.00046  1.0000
  H   H705      1.0  0.32628  0.40751  0.27311  1.0000
  C   C407      1.0  0.43997  0.30192  0.48141  1.0000
  S   S102      1.0  0.52856  0.07784  0.02689  1.0000
  N   N23       1.0  0.42323  0.46835  0.05037  1.0000
  C   C408      1.0  0.56148  0.99562  0.07049  1.0000
  C   C409      1.0  0.50152  0.02001  0.33513  1.0000
  C   C410      1.0  0.58061  0.00914  0.46363  1.0000
  N   N24       1.0  0.61190  0.39897  0.01427  1.0000
  C   C411      1.0  0.58181  0.15061  0.03726  1.0000
  H   H706      1.0  0.49256  0.98169  0.32989  1.0000
  H   H707      1.0  0.42056  0.46736  0.10499  1.0000
  C   C412      1.0  0.61343  0.45270  0.43426  1.0000
  H   H708      1.0  0.49890  0.99010  0.39089  1.0000
  C   C413      1.0  0.57620  0.18873  0.46817  1.0000
  H   H709      1.0  0.51196  0.17287  0.01853  1.0000
  H   H710      1.0  0.51554  0.21136  0.04725  1.0000
  C   C414      1.0  0.59621  0.14227  0.00657  1.0000
  S   S103      1.0  0.55347  0.33671  0.01407  1.0000
  H   H711      1.0  0.46569  0.41115  0.49453  1.0000
  C   C415      1.0  0.48232  0.22196  0.45989  1.0000
  H   H712      1.0  0.63697  0.09011  0.25539  1.0000
  H   H713      1.0  0.36136  0.99067  0.13404  1.0000
  H   H714      1.0  0.46878  0.12190  0.02293  1.0000
  H   H715      1.0  0.48530  0.10352  0.32517  1.0000
  S   S104      1.0  0.63045  0.99410  0.14546  1.0000
  H   H716      1.0  0.52505  0.24611  0.08153  1.0000
  C   C416      1.0  0.60328  0.36777  0.25283  1.0000
  H   H717      1.0  0.61738  0.40282  0.06808  1.0000
  H   H718      1.0  0.46584  0.14826  0.04913  1.0000
  C   C417      1.0  0.53663  0.45410  0.40748  1.0000
  H   H719      1.0  0.58605  0.13793  0.05808  1.0000
  H   H720      1.0  0.34777  0.46452  0.04027  1.0000
  H   H721      1.0  0.54723  0.14000  0.15656  1.0000
  C   C418      1.0  0.54691  0.18865  0.06012  1.0000
  S   S105      1.0  0.63726  0.43270  0.25944  1.0000
  C   C419      1.0  0.51328  0.16283  0.04269  1.0000
  H   H722      1.0  0.62171  0.06457  0.37817  1.0000
  C   C420      1.0  0.36551  0.47027  0.35487  1.0000
  C   C421      1.0  0.52767  0.20817  0.06920  1.0000
  H   H723      1.0  0.39908  0.46803  0.32709  1.0000
  H   H724      1.0  0.61778  0.37710  0.26651  1.0000
  H   H725      1.0  0.55087  0.23777  0.05694  1.0000
  H   H726      1.0  0.50355  0.44234  0.38460  1.0000
  C   C422      1.0  0.53920  0.23201  0.07782  1.0000
  H   H727      1.0  0.50084  0.17247  0.05998  1.0000
  C   C423      1.0  0.50716  0.07096  0.31815  1.0000
  H   H728      1.0  0.49035  0.04359  0.01899  1.0000
  C   C424      1.0  0.62577  0.43064  0.41871  1.0000
  H   H729      1.0  0.58541  0.15303  0.48734  1.0000
  H   H730      1.0  0.59074  0.02326  0.41498  1.0000
  H   H731      1.0  0.53514  0.00909  0.12531  1.0000
  H   H732      1.0  0.45746  0.44955  0.04258  1.0000
  C   C425      1.0  0.50774  0.99291  0.33762  1.0000
  C   C426      1.0  0.50313  0.00636  0.01862  1.0000
  H   H733      1.0  0.55939  0.01707  0.41844  1.0000
  H   H734      1.0  0.51710  0.10809  0.32242  1.0000
  C   C427      1.0  0.51424  0.98609  0.37387  1.0000
  H   H735      1.0  0.60925  0.36437  0.22655  1.0000
  C   C428      1.0  0.52496  0.15662  0.11728  1.0000
  C   C429      1.0  0.52844  0.13974  0.14726  1.0000
  H   H736      1.0  0.42025  0.29995  0.48065  1.0000
  H   H737      1.0  0.50469  0.99205  0.99928  1.0000
  N   N25       1.0  0.53873  0.16306  0.05577  1.0000
  H   H738      1.0  0.57920  0.43780  0.42110  1.0000
  H   H739      1.0  0.61436  0.45055  0.46196  1.0000
  H   H740      1.0  0.50457  0.12608  0.05857  1.0000
  C   C430      1.0  0.39739  0.46099  0.05183  1.0000
  H   H741      1.0  0.43497  0.43178  0.05947  1.0000
  H   H742      1.0  0.42172  0.01862  0.23512  1.0000
  H   H743      1.0  0.51642  0.14556  0.16809  1.0000
  H   H744      1.0  0.56798  0.20543  0.47866  1.0000
  H   H745      1.0  0.48915  0.00181  0.03703  1.0000
  H   H746      1.0  0.49264  0.00124  0.23771  1.0000
  H   H747      1.0  0.39568  0.44525  0.06882  1.0000
  H   H748      1.0  0.56040  0.01272  0.08491  1.0000
  S   S106      1.0  0.49577  0.33589  0.49082  1.0000
  C   C431      1.0  0.50201  0.09762  0.31221  1.0000
  H   H749      1.0  0.61967  0.00472  0.04160  1.0000
  H   H750      1.0  0.62689  0.20142  0.35704  1.0000
  H   H751      1.0  0.46204  0.45589  0.09962  1.0000
  H   H752      1.0  0.53088  0.01506  0.21241  1.0000
  H   H753      1.0  0.61711  0.41408  0.42731  1.0000
  C   C432      1.0  0.43313  0.01016  0.25498  1.0000
  H   H754      1.0  0.36013  0.47461  0.38117  1.0000
  H   H755      1.0  0.59493  0.37170  0.04413  1.0000
  H   H756      1.0  0.52400  0.12110  0.13996  1.0000
  H   H757      1.0  0.53000  0.99617  0.38266  1.0000
  C   C433      1.0  0.51795  0.00499  0.11263  1.0000
  C   C434      1.0  0.32075  0.42657  0.26937  1.0000
  H   H758      1.0  0.46387  0.03126  0.24337  1.0000
  H   H759      1.0  0.39091  0.45508  0.02671  1.0000
  C   C435      1.0  0.50260  0.13783  0.03625  1.0000
  N   N26       1.0  0.49156  0.02893  0.30191  1.0000
  H   H760      1.0  0.50026  0.10136  0.28483  1.0000
  N   N27       1.0  0.56081  0.19611  0.40714  1.0000
  C   C436      1.0  0.54898  0.18311  0.37831  1.0000
  C   C437      1.0  0.58559  0.20280  0.39637  1.0000
  C   C438      1.0  0.56166  0.17976  0.43729  1.0000
  C   C439      1.0  0.54698  0.21871  0.41660  1.0000
  C   C440      1.0  0.54197  0.23676  0.38765  1.0000
  C   C441      1.0  0.52217  0.17752  0.38299  1.0000
  H   H761      1.0  0.47116  0.99725  0.28970  1.0000
  C   C442      1.0  0.60347  0.18152  0.38999  1.0000
  H   H762      1.0  0.59499  0.19232  0.46148  1.0000
  C   C443      1.0  0.52641  0.25796  0.39982  1.0000
  C   C444      1.0  0.51202  0.16540  0.35160  1.0000
  H   H763      1.0  0.50040  0.46155  0.24229  1.0000
  H   H764      1.0  0.55819  0.16546  0.37378  1.0000
  H   H765      1.0  0.55090  0.19312  0.35433  1.0000
  H   H766      1.0  0.58465  0.21313  0.37246  1.0000
  H   H767      1.0  0.59371  0.21523  0.41502  1.0000
  H   H768      1.0  0.56862  0.16156  0.43010  1.0000
  H   H769      1.0  0.54323  0.17683  0.44652  1.0000
  H   H770      1.0  0.52963  0.21433  0.42831  1.0000
  H   H771      1.0  0.55669  0.22879  0.43648  1.0000
  H   H772      1.0  0.53240  0.22832  0.36629  1.0000
  H   H773      1.0  0.55896  0.24404  0.37824  1.0000
  H   H774      1.0  0.51998  0.16508  0.40436  1.0000
  H   H775      1.0  0.51114  0.19397  0.38773  1.0000
  H   H776      1.0  0.54752  0.99845  0.24427  1.0000
  H   H777      1.0  0.51152  0.12897  0.01451  1.0000
  H   H778      1.0  0.60589  0.17018  0.41268  1.0000
  H   H779      1.0  0.59717  0.17002  0.36901  1.0000
  C   C445      1.0  0.61748  0.32932  0.02649  1.0000
  H   H780      1.0  0.49881  0.01279  0.15899  1.0000
  H   H781      1.0  0.53743  0.43832  0.42413  1.0000
  H   H782      1.0  0.50831  0.25184  0.40660  1.0000
  H   H783      1.0  0.53464  0.26675  0.42212  1.0000
  H   H784      1.0  0.52439  0.27143  0.37942  1.0000
  H   H785      1.0  0.52212  0.14843  0.34617  1.0000
  H   H786      1.0  0.49297  0.16111  0.35592  1.0000
  H   H787      1.0  0.51294  0.17745  0.32949  1.0000
  Fe  Fe50      1.0  0.52791  0.35945  0.48865  1.0000
  H   H788      1.0  0.45578  0.97921  0.45445  1.0000
  C   C446      1.0  0.62648  0.35488  0.02379  1.0000
  H   H789      1.0  0.57810  0.01669  0.03058  1.0000
  H   H790      1.0  0.48744  0.46924  0.31975  1.0000
  H   H791      1.0  0.52397  0.06601  0.30482  1.0000
  C   C447      1.0  0.39263  0.47287  0.35274  1.0000
  C   C448      1.0  0.62810  0.19055  0.38040  1.0000
  C   C449      1.0  0.52773  0.00972  0.03578  1.0000
  H   H792      1.0  0.44380  0.04425  0.27410  1.0000
  C   C450      1.0  0.50973  0.02554  0.27404  1.0000
  Fe  Fe51      1.0  0.36639  0.98491  0.30384  1.0000
  H   H793      1.0  0.32224  0.45835  0.36510  1.0000
  H   H794      1.0  0.52910  0.17493  0.12614  1.0000
  H   H795      1.0  0.56150  0.18951  0.07930  1.0000
  H   H796      1.0  0.56033  0.15090  0.09805  1.0000
  H   H797      1.0  0.50779  0.04015  0.25508  1.0000
  H   H798      1.0  0.54248  0.43935  0.47780  1.0000
  C   C451      1.0  0.60595  0.00065  0.06073  1.0000
  C   C452      1.0  0.55866  0.00861  0.48744  1.0000
  S   S107      1.0  0.53445  0.27194  0.00292  1.0000
  H   H799      1.0  0.52824  0.02728  0.28433  1.0000
  C   C453      1.0  0.51050  0.45860  0.39718  1.0000
  H   H800      1.0  0.44752  0.29525  0.45719  1.0000
  H   H801      1.0  0.54973  0.13191  0.02612  1.0000
  C   C454      1.0  0.56955  0.46721  0.47752  1.0000
  C   C455      1.0  0.50070  0.99792  0.14042  1.0000
  H   H802      1.0  0.54255  0.00435  0.47204  1.0000
  H   H803      1.0  0.52356  0.98844  0.32180  1.0000
  H   H804      1.0  0.59113  0.12395  0.99881  1.0000
  C   C456      1.0  0.55448  0.15102  0.02958  1.0000
  H   H805      1.0  0.63761  0.04860  0.27598  1.0000
  H   H806      1.0  0.36148  0.45127  0.34994  1.0000
  C   C457      1.0  0.63262  0.43418  0.04475  1.0000
  H   H807      1.0  0.45676  0.01736  0.31761  1.0000
  H   H808      1.0  0.52908  0.98296  0.21428  1.0000
  C   C458      1.0  0.50908  0.00178  0.25350  1.0000
  H   H809      1.0  0.35024  0.99401  0.17662  1.0000
  H   H810      1.0  0.48873  0.02471  0.35568  1.0000
  H   H811      1.0  0.54010  0.42453  0.01395  1.0000
  H   H812      1.0  0.63288  0.31658  0.02976  1.0000
  C   C459      1.0  0.35387  0.47057  0.06554  1.0000
  H   H813      1.0  0.58797  0.46108  0.39444  1.0000
  H   H814      1.0  0.63564  0.20159  0.40110  1.0000
  H   H815      1.0  0.48273  0.99421  0.12973  1.0000
  H   H816      1.0  0.57160  0.04307  0.43923  1.0000
  H   H817      1.0  0.32994  0.47460  0.27283  1.0000
  C   C460      1.0  0.58135  0.99943  0.04392  1.0000
  H   H818      1.0  0.54679  0.44972  0.38415  1.0000
  C   C461      1.0  0.55086  0.43179  0.03510  1.0000
  C   C462      1.0  0.57514  0.02402  0.43219  1.0000
  H   H819      1.0  0.53045  0.45841  0.22640  1.0000
  Fe  Fe52      1.0  0.59726  0.98332  0.17296  1.0000
  H   H820      1.0  0.52702  0.02655  0.05083  1.0000
  H   H821      1.0  0.53945  0.43270  0.05791  1.0000
  H   H822      1.0  0.32913  0.43293  0.24583  1.0000
  S   S108      1.0  0.37180  0.47125  0.23051  1.0000
  H   H823      1.0  0.52475  0.45399  0.27078  1.0000
  C   C463      1.0  0.56143  0.44148  0.48538  1.0000
  H   H824      1.0  0.60549  0.32768  0.04858  1.0000
  H   H825      1.0  0.57272  0.42759  0.47267  1.0000
  C   C464      1.0  0.62645  0.40731  0.04404  1.0000
  H   H826      1.0  0.44105  0.39827  0.01532  1.0000
  H   H827      1.0  0.48477  0.26047  0.46566  1.0000
  H   H828      1.0  0.61085  0.98324  0.07269  1.0000
  H   H829      1.0  0.63231  0.04330  0.40958  1.0000
  H   H830      1.0  0.54028  0.01345  0.01493  1.0000
  C   C465      1.0  0.60527  0.37328  0.02048  1.0000
  C   C466      1.0  0.58882  0.41340  0.01020  1.0000
  H   H831      1.0  0.35352  0.45524  0.08327  1.0000
  H   H832      1.0  0.58672  0.47014  0.49109  1.0000
  C   C467      1.0  0.36281  0.98369  0.16014  1.0000
  Fe  Fe53      1.0  0.39165  0.46812  0.18146  1.0000
  H   H833      1.0  0.58649  0.99100  0.45546  1.0000
  H   H834      1.0  0.46666  0.47083  0.28447  1.0000
  N   N28       1.0  0.57178  0.47373  0.44079  1.0000
  C   C468      1.0  0.41351  0.98054  0.49234  1.0000
  H   H835      1.0  0.44405  0.32123  0.48412  1.0000
  C   C469      1.0  0.51032  0.19795  0.49264  1.0000
  S   S109      1.0  0.63985  0.03257  0.20847  1.0000
  H   H836      1.0  0.50769  0.98172  0.15382  1.0000
  H   H837      1.0  0.50302  0.97944  0.07821  1.0000
  C   C470      1.0  0.32073  0.46812  0.29558  1.0000
  H   H838      1.0  0.59218  0.43206  0.00251  1.0000
  H   H839      1.0  0.64061  0.06942  0.30998  1.0000
  H   H840      1.0  0.45573  0.47355  0.32687  1.0000
  H   H841      1.0  0.50898  0.47379  0.37926  1.0000
  S   S110      1.0  0.35373  0.97797  0.25049  1.0000
  H   H842      1.0  0.60759  0.32425  0.00325  1.0000
  H   H843      1.0  0.63858  0.35545  0.00177  1.0000
  C   C471      1.0  0.43390  0.43599  0.00499  1.0000
  H   H844      1.0  0.46757  0.41489  0.00655  1.0000
  C   C472      1.0  0.63728  0.05892  0.39411  1.0000
  C   C473      1.0  0.44844  0.41272  0.99969  1.0000
  H   H845      1.0  0.47296  0.15106  0.00488  1.0000
  H   H846      1.0  0.41494  0.43169  0.00029  1.0000
  H   H847      1.0  0.43880  0.97608  0.02700  1.0000
  H   H848      1.0  0.55592  0.02767  0.49562  1.0000
  Fe  Fe54      1.0  0.49855  0.08295  0.90725  1.0000
  S   S111      1.0  0.51478  0.11508  0.88257  1.0000
  S   S112      1.0  0.48018  0.05134  0.88137  1.0000
  Fe  Fe55      1.0  0.52798  0.09099  0.97279  1.0000
  S   S113      1.0  0.54714  0.12248  0.95181  1.0000
  C   C474      1.0  0.56292  0.43644  0.52319  1.0000
  Fe  Fe56      1.0  0.51093  0.13458  0.93278  1.0000
  S   S114      1.0  0.49514  0.17260  0.94273  1.0000
  Fe  Fe57      1.0  0.54957  0.10062  0.90377  1.0000
  S   S115      1.0  0.58279  0.09690  0.87125  1.0000
  S   S116      1.0  0.49142  0.10340  0.95535  1.0000
  S   S117      1.0  0.53381  0.06816  0.92692  1.0000
  H   H849      1.0  0.32211  0.04899  0.73918  1.0000
  S   S118      1.0  0.59785  0.99934  0.66782  1.0000
  H   H850      1.0  0.63062  0.07529  0.65500  1.0000
  Fe  Fe58      1.0  0.61086  0.01062  0.71899  1.0000
  S   S119      1.0  0.58041  0.01797  0.75539  1.0000
  H   H851      1.0  0.57839  0.13631  0.62210  1.0000
  S   S120      1.0  0.37807  0.02405  0.82084  1.0000
  H   H852      1.0  0.58974  0.08217  0.66027  1.0000
  Fe  Fe59      1.0  0.48902  0.35390  0.54094  1.0000
  S   S121      1.0  0.51013  0.32559  0.56906  1.0000
  S   S122      1.0  0.45092  0.36639  0.55314  1.0000
  H   H853      1.0  0.61650  0.08427  0.81898  1.0000
  Fe  Fe60      1.0  0.37000  0.98699  0.79956  1.0000
  S   S123      1.0  0.53209  0.39235  0.95410  1.0000
  Fe  Fe61      1.0  0.51951  0.30928  0.51855  1.0000
  S   S124      1.0  0.49666  0.33766  0.99377  1.0000
  Fe  Fe62      1.0  0.54151  0.34939  0.56192  1.0000
  S   S125      1.0  0.56658  0.35161  0.60713  1.0000
  H   H854      1.0  0.50123  0.35306  0.65738  1.0000
  S   S126      1.0  0.51966  0.37887  0.53740  1.0000
  Fe  Fe63      1.0  0.61806  0.43372  0.81273  1.0000
  S   S127      1.0  0.58590  0.44779  0.78444  1.0000
  S   S128      1.0  0.61676  0.40227  0.84875  1.0000
  Fe  Fe64      1.0  0.61009  0.44915  0.73974  1.0000
  S   S129      1.0  0.59748  0.44543  0.68540  1.0000
  H   H855      1.0  0.39781  0.21732  0.55137  1.0000
  H   H856      1.0  0.31309  0.99476  0.60438  1.0000
  S   S130      1.0  0.42716  0.44510  0.66563  1.0000
  C   C475      1.0  0.62086  0.13378  0.67766  1.0000
  C   C476      1.0  0.44457  0.38911  0.58334  1.0000
  C   C477      1.0  0.46264  0.39873  0.60335  1.0000
  C   C478      1.0  0.45693  0.41608  0.62806  1.0000
  C   C479      1.0  0.43316  0.42420  0.63283  1.0000
  C   C480      1.0  0.41513  0.41505  0.61224  1.0000
  C   C481      1.0  0.42082  0.39746  0.58772  1.0000
  H   H857      1.0  0.48097  0.39258  0.60000  1.0000
  H   H858      1.0  0.47100  0.42325  0.64357  1.0000
  H   H859      1.0  0.39675  0.42106  0.61579  1.0000
  H   H860      1.0  0.40672  0.39009  0.57232  1.0000
  C   C482      1.0  0.55555  0.39411  0.92450  1.0000
  C   C483      1.0  0.55509  0.41320  0.90151  1.0000
  C   C484      1.0  0.57358  0.41572  0.87796  1.0000
  C   C485      1.0  0.59283  0.39926  0.87736  1.0000
  C   C486      1.0  0.59327  0.38010  0.90027  1.0000
  C   C487      1.0  0.57471  0.37750  0.92377  1.0000
  H   H861      1.0  0.54027  0.42602  0.90174  1.0000
  H   H862      1.0  0.57297  0.43044  0.86032  1.0000
  H   H863      1.0  0.60801  0.36716  0.89974  1.0000
  H   H864      1.0  0.57511  0.36258  0.94107  1.0000
  C   C488      1.0  0.57328  0.37797  0.62981  1.0000
  C   C489      1.0  0.56724  0.40076  0.61745  1.0000
  C   C490      1.0  0.57425  0.42130  0.63532  1.0000
  C   C491      1.0  0.58690  0.41922  0.66594  1.0000
  C   C492      1.0  0.59222  0.39647  0.67890  1.0000
  C   C493      1.0  0.58559  0.37593  0.66072  1.0000
  H   H865      1.0  0.55778  0.40250  0.59369  1.0000
  H   H866      1.0  0.57020  0.43889  0.62511  1.0000
  H   H867      1.0  0.60203  0.39467  0.70238  1.0000
  H   H868      1.0  0.59024  0.35832  0.67045  1.0000
  C   C494      1.0  0.50658  0.20012  0.95919  1.0000
  H   H869      1.0  0.45002  0.98721  0.51092  1.0000
  H   H870      1.0  0.46917  0.00733  0.92959  1.0000
  Fe  Fe65      1.0  0.52681  0.36381  0.99420  1.0000
  H   H871      1.0  0.53745  0.01065  0.70873  1.0000
  H   H872      1.0  0.54367  0.18894  0.96015  1.0000
  S   S131      1.0  0.52354  0.26795  0.51558  1.0000
  H   H873      1.0  0.51391  0.37800  0.63567  1.0000
  C   C495      1.0  0.61254  0.11486  0.62188  1.0000
  H   H874      1.0  0.54784  0.01652  0.64858  1.0000
  C   C496      1.0  0.45147  0.04489  0.86470  1.0000
  C   C497      1.0  0.44795  0.02181  0.85155  1.0000
  C   C498      1.0  0.42553  0.01509  0.83890  1.0000
  C   C499      1.0  0.40635  0.03165  0.83817  1.0000
  C   C500      1.0  0.40982  0.05485  0.85121  1.0000
  C   C501      1.0  0.43225  0.06143  0.86461  1.0000
  H   H875      1.0  0.46266  0.00893  0.85143  1.0000
  H   H876      1.0  0.42316  0.99713  0.82954  1.0000
  H   H877      1.0  0.39509  0.06781  0.85091  1.0000
  H   H878      1.0  0.43464  0.07927  0.87470  1.0000
  C   C502      1.0  0.55330  0.07026  0.55790  1.0000
  C   C503      1.0  0.57369  0.07013  0.53770  1.0000
  C   C504      1.0  0.59573  0.06165  0.55081  1.0000
  C   C505      1.0  0.59733  0.05272  0.58378  1.0000
  C   C506      1.0  0.57683  0.05235  0.60369  1.0000
  C   C507      1.0  0.55495  0.06144  0.59094  1.0000
  C   C508      1.0  0.46853  0.98810  0.92267  1.0000
  H   H879      1.0  0.61161  0.06203  0.53538  1.0000
  H   H880      1.0  0.57799  0.04556  0.62912  1.0000
  H   H881      1.0  0.53922  0.06164  0.60669  1.0000
  C   C509      1.0  0.58258  0.07441  0.83971  1.0000
  C   C510      1.0  0.56355  0.05870  0.83695  1.0000
  C   C511      1.0  0.56354  0.04108  0.81153  1.0000
  C   C512      1.0  0.58234  0.03917  0.78839  1.0000
  C   C513      1.0  0.60156  0.05464  0.79126  1.0000
  C   C514      1.0  0.60170  0.07220  0.81692  1.0000
  H   H882      1.0  0.54876  0.06018  0.85434  1.0000
  H   H883      1.0  0.54886  0.02890  0.80986  1.0000
  H   H884      1.0  0.61603  0.05327  0.77342  1.0000
  H   H885      1.0  0.57117  0.37883  0.78553  1.0000
  H   H886      1.0  0.64149  0.40504  0.91666  1.0000
  H   H887      1.0  0.51706  0.02254  0.51464  1.0000
  H   H888      1.0  0.32602  0.01546  0.63244  1.0000
  H   H889      1.0  0.30886  0.03324  0.56820  1.0000
  H   H890      1.0  0.45540  0.47045  0.72401  1.0000
  C   C515      1.0  0.30904  0.00613  0.62678  1.0000
  C   C516      1.0  0.62824  0.41710  0.56826  1.0000
  H   H891      1.0  0.53807  0.40402  0.68607  1.0000
  H   H892      1.0  0.54639  0.38212  0.73402  1.0000
  C   C517      1.0  0.51333  0.36845  0.66012  1.0000
  H   H893      1.0  0.47162  0.21730  0.96112  1.0000
  H   H894      1.0  0.63905  0.09057  0.69256  1.0000
  H   H895      1.0  0.41486  0.25536  0.53390  1.0000
  H   H896      1.0  0.43902  0.47327  0.61065  1.0000
  C   C518      1.0  0.59028  0.97692  0.56377  1.0000
  H   H897      1.0  0.59360  0.18865  0.70003  1.0000
  H   H898      1.0  0.58125  0.98570  0.58555  1.0000
  H   H899      1.0  0.44089  0.05131  0.97350  1.0000
  H   H900      1.0  0.42694  0.00605  0.76993  1.0000
  N   N29       1.0  0.43021  0.97841  0.95680  1.0000
  C   C519      1.0  0.58846  0.12932  0.57090  1.0000
  H   H901      1.0  0.55312  0.09472  0.71381  1.0000
  C   C520      1.0  0.59224  0.09515  0.71181  1.0000
  H   H902      1.0  0.41199  0.46651  0.52795  1.0000
  N   N30       1.0  0.49528  0.02682  0.74160  1.0000
  C   C521      1.0  0.46855  0.02943  0.74657  1.0000
  C   C522      1.0  0.50703  0.04984  0.75209  1.0000
  C   C523      1.0  0.49974  0.02346  0.70429  1.0000
  C   C524      1.0  0.50630  0.00556  0.76006  1.0000
  H   H903      1.0  0.52198  0.42358  0.77379  1.0000
  C   C525      1.0  0.51872  0.40862  0.68937  1.0000
  C   C526      1.0  0.52635  0.02317  0.69319  1.0000
  C   C527      1.0  0.50170  0.05954  0.78800  1.0000
  C   C528      1.0  0.51203  0.08442  0.79290  1.0000
  C   C529      1.0  0.42751  0.01075  0.74288  1.0000
  H   H904      1.0  0.55208  0.01992  0.55464  1.0000
  H   H905      1.0  0.40320  0.02277  0.93444  1.0000
  H   H906      1.0  0.46186  0.04689  0.73612  1.0000
  H   H907      1.0  0.46392  0.03032  0.77373  1.0000
  H   H908      1.0  0.52690  0.04787  0.75069  1.0000
  H   H909      1.0  0.50183  0.06440  0.73410  1.0000
  H   H910      1.0  0.49013  0.03780  0.68964  1.0000
  H   H911      1.0  0.50925  0.99231  0.52480  1.0000
  C   C530      1.0  0.63547  0.09314  0.66522  1.0000
  H   H912      1.0  0.52576  0.00834  0.76461  1.0000
  C   C531      1.0  0.45673  0.45936  0.74716  1.0000
  H   H913      1.0  0.49312  0.01424  0.81129  1.0000
  H   H914      1.0  0.40737  0.22213  0.59425  1.0000
  Fe  Fe66      1.0  0.39512  0.47065  0.67501  1.0000
  H   H915      1.0  0.43426  0.02373  0.92523  1.0000
  H   H916      1.0  0.53376  0.04137  0.69550  1.0000
  H   H917      1.0  0.48226  0.06130  0.79314  1.0000
  H   H918      1.0  0.51025  0.04784  0.80724  1.0000
  H   H919      1.0  0.50352  0.09750  0.77524  1.0000
  H   H920      1.0  0.50843  0.09063  0.81899  1.0000
  H   H921      1.0  0.53171  0.08393  0.78908  1.0000
  H   H922      1.0  0.57003  0.13230  0.56082  1.0000
  H   H923      1.0  0.41941  0.02897  0.73939  1.0000
  S   S132      1.0  0.63714  0.97973  0.72526  1.0000
  C   C532      1.0  0.53077  0.44571  0.71723  1.0000
  C   C533      1.0  0.56885  0.08369  0.72215  1.0000
  H   H924      1.0  0.55719  0.41786  0.52805  1.0000
  C   C534      1.0  0.31510  0.02424  0.69805  1.0000
  H   H925      1.0  0.51362  0.41860  0.66615  1.0000
  H   H926      1.0  0.55098  0.44904  0.53740  1.0000
  H   H927      1.0  0.59157  0.01042  0.53703  1.0000
  H   H928      1.0  0.42051  0.98821  0.90533  1.0000
  H   H929      1.0  0.52294  0.45668  0.66483  1.0000
  H   H930      1.0  0.44736  0.40703  0.97288  1.0000
  C   C535      1.0  0.45874  0.46021  0.54949  1.0000
  C   C536      1.0  0.60121  0.15381  0.67738  1.0000
  C   C537      1.0  0.50439  0.38513  0.68826  1.0000
  S   S133      1.0  0.64154  0.43166  0.76648  1.0000
  H   H931      1.0  0.53156  0.36131  0.66627  1.0000
  C   C538      1.0  0.41586  0.47275  0.55391  1.0000
  H   H932      1.0  0.48257  0.43962  0.69788  1.0000
  H   H933      1.0  0.51787  0.02739  0.63976  1.0000
  H   H934      1.0  0.57643  0.11071  0.66757  1.0000
  H   H935      1.0  0.38192  0.98785  0.94448  1.0000
  C   C539      1.0  0.49496  0.99870  0.79413  1.0000
  H   H936      1.0  0.48591  0.25599  0.98426  1.0000
  C   C540      1.0  0.45091  0.28748  0.51055  1.0000
  H   H937      1.0  0.53419  0.21788  0.52468  1.0000
  S   S134      1.0  0.52537  0.08095  0.54290  1.0000
  C   C541      1.0  0.53096  0.20330  0.96579  1.0000
  C   C542      1.0  0.62645  0.39940  0.98213  1.0000
  H   H938      1.0  0.60765  0.47266  0.92908  1.0000
  H   H939      1.0  0.62778  0.42533  0.54284  1.0000
  H   H940      1.0  0.38491  0.24191  0.57528  1.0000
  H   H941      1.0  0.46096  0.99142  0.73537  1.0000
  C   C543      1.0  0.55338  0.38815  0.78652  1.0000
  H   H942      1.0  0.41861  0.06283  0.94456  1.0000
  H   H943      1.0  0.45244  0.01202  0.70240  1.0000
  H   H944      1.0  0.48662  0.43488  0.50085  1.0000
  N   N31       1.0  0.51497  0.42421  0.72016  1.0000
  H   H945      1.0  0.40754  0.00902  0.55039  1.0000
  H   H946      1.0  0.46208  0.44901  0.57233  1.0000
  H   H947      1.0  0.51102  0.03453  0.57458  1.0000
  C   C544      1.0  0.54662  0.39767  0.75157  1.0000
  H   H948      1.0  0.30833  0.02170  0.75199  1.0000
  S   S135      1.0  0.63041  0.47010  0.82917  1.0000
  H   H949      1.0  0.47893  0.41550  0.53541  1.0000
  H   H950      1.0  0.44350  0.44485  0.74542  1.0000
  C   C545      1.0  0.60766  0.17424  0.70133  1.0000
  H   H951      1.0  0.54000  0.37521  0.79531  1.0000
  H   H952      1.0  0.39513  0.98378  0.50236  1.0000
  H   H953      1.0  0.63160  0.39748  0.56531  1.0000
  H   H954      1.0  0.51734  0.18062  0.50047  1.0000
  S   S136      1.0  0.55243  0.33173  0.51288  1.0000
  H   H955      1.0  0.45203  0.47101  0.76906  1.0000
  H   H956      1.0  0.59749  0.11519  0.55540  1.0000
  H   H957      1.0  0.37982  0.99334  0.88233  1.0000
  H   H958      1.0  0.44071  0.00810  0.98842  1.0000
  H   H959      1.0  0.53672  0.45317  0.96107  1.0000
  H   H960      1.0  0.64006  0.43723  0.91504  1.0000
  N   N32       1.0  0.61495  0.11084  0.65953  1.0000
  H   H961      1.0  0.50814  0.39762  0.75857  1.0000
  H   H962      1.0  0.60654  0.42358  0.94806  1.0000
  C   C546      1.0  0.42262  0.04850  0.96327  1.0000
  C   C547      1.0  0.53902  0.22533  0.97902  1.0000
  N   N33       1.0  0.44783  0.28281  0.57611  1.0000
  C   C548      1.0  0.47075  0.26814  0.57194  1.0000
  C   C549      1.0  0.44296  0.29796  0.54511  1.0000
  C   C550      1.0  0.45132  0.29961  0.60568  1.0000
  C   C551      1.0  0.42675  0.26742  0.58369  1.0000
  C   C552      1.0  0.42137  0.24735  0.55789  1.0000
  C   C553      1.0  0.47856  0.25228  0.60227  1.0000
  C   C554      1.0  0.43062  0.31811  0.61255  1.0000
  Fe  Fe67      1.0  0.62758  0.02086  0.64732  1.0000
  S   S137      1.0  0.62537  0.04329  0.59988  1.0000
  C   C555      1.0  0.40164  0.23126  0.57062  1.0000
  C   C556      1.0  0.50049  0.23660  0.59354  1.0000
  C   C557      1.0  0.43794  0.33644  0.63924  1.0000
  H   H963      1.0  0.48578  0.28020  0.56644  1.0000
  H   H964      1.0  0.46992  0.25606  0.54973  1.0000
  H   H965      1.0  0.43891  0.01305  0.55882  1.0000
  H   H966      1.0  0.45249  0.31524  0.54709  1.0000
  H   H967      1.0  0.46801  0.30980  0.60230  1.0000
  H   H968      1.0  0.45379  0.28945  0.62952  1.0000
  H   H969      1.0  0.42876  0.25921  0.60909  1.0000
  H   H970      1.0  0.41007  0.27868  0.58527  1.0000
  H   H971      1.0  0.43731  0.23567  0.55297  1.0000
  H   H972      1.0  0.61789  0.09823  0.60776  1.0000
  H   H973      1.0  0.48357  0.26351  0.62423  1.0000
  H   H974      1.0  0.46412  0.24015  0.60973  1.0000
  H   H975      1.0  0.41461  0.30893  0.62200  1.0000
  H   H976      1.0  0.42534  0.32825  0.58964  1.0000
  C   C558      1.0  0.52295  0.24465  0.98578  1.0000
  H   H977      1.0  0.31530  0.05311  0.60323  1.0000
  C   C559      1.0  0.58583  0.99180  0.53145  1.0000
  H   H978      1.0  0.62721  0.43885  0.97513  1.0000
  H   H979      1.0  0.50515  0.98125  0.94044  1.0000
  C   C560      1.0  0.37659  0.97553  0.89356  1.0000
  H   H980      1.0  0.54937  0.43987  0.71095  1.0000
  H   H981      1.0  0.62457  0.99292  0.57586  1.0000
  H   H982      1.0  0.50604  0.22576  0.61577  1.0000
  H   H983      1.0  0.49631  0.22418  0.57246  1.0000
  H   H984      1.0  0.51570  0.24790  0.58620  1.0000
  H   H985      1.0  0.45368  0.34651  0.63065  1.0000
  H   H986      1.0  0.42296  0.34955  0.64352  1.0000
  H   H987      1.0  0.44239  0.32743  0.66346  1.0000
  C   C561      1.0  0.52185  0.41093  0.75197  1.0000
  C   C562      1.0  0.30857  0.03560  0.73201  1.0000
  C   C563      1.0  0.48210  0.44889  0.75154  1.0000
  H   H988      1.0  0.31594  0.03884  0.67922  1.0000
  H   H989      1.0  0.55455  0.40308  0.80506  1.0000
  C   C564      1.0  0.52886  0.01543  0.65633  1.0000
  H   H990      1.0  0.49233  0.00622  0.69538  1.0000
  C   C565      1.0  0.62454  0.42233  0.96017  1.0000
  H   H991      1.0  0.47651  0.46724  0.54249  1.0000
  H   H992      1.0  0.48515  0.38930  0.68332  1.0000
  H   H993      1.0  0.48475  0.02192  0.55596  1.0000
  H   H994      1.0  0.55792  0.22754  0.98371  1.0000
  H   H995      1.0  0.48289  0.43906  0.77582  1.0000
  H   H996      1.0  0.50588  0.37506  0.71219  1.0000
  H   H997      1.0  0.33321  0.01604  0.70078  1.0000
  H   H998      1.0  0.50871  0.03549  0.98303  1.0000
  H   H999      1.0  0.55859  0.16657  0.50529  1.0000
  H   H1000     1.0  0.47755  0.41567  0.72538  1.0000
  H   H1001     1.0  0.56781  0.06537  0.71122  1.0000
  H   H1002     1.0  0.60879  0.16774  0.72773  1.0000
  H   H1003     1.0  0.44593  0.26857  0.50700  1.0000
  H   H1004     1.0  0.40937  0.05009  0.98395  1.0000
  H   H1005     1.0  0.57254  0.07694  0.51224  1.0000
  H   H1006     1.0  0.56822  0.08222  0.75001  1.0000
  C   C566      1.0  0.58728  0.12163  0.60775  1.0000
  H   H1007     1.0  0.59363  0.11226  0.72600  1.0000
  S   S138      1.0  0.35776  0.98136  0.74582  1.0000
  H   H1008     1.0  0.36834  0.46542  0.57064  1.0000
  H   H1009     1.0  0.58158  0.43808  0.53252  1.0000
  C   C567      1.0  0.45327  0.00957  0.73016  1.0000
  C   C568      1.0  0.42127  0.02402  0.94602  1.0000
  H   H1010     1.0  0.62601  0.12999  0.70431  1.0000
  C   C569      1.0  0.50340  0.01781  0.56433  1.0000
  H   H1011     1.0  0.49972  0.43059  0.96750  1.0000
  C   C570      1.0  0.52310  0.46465  0.69048  1.0000
  H   H1012     1.0  0.62517  0.12875  0.61356  1.0000
  H   H1013     1.0  0.59958  0.16156  0.65175  1.0000
  C   C571      1.0  0.49991  0.44957  0.97582  1.0000
  H   H1014     1.0  0.50258  0.99063  0.89726  1.0000
  H   H1015     1.0  0.43952  0.44898  0.98568  1.0000
  H   H1016     1.0  0.62503  0.18199  0.69424  1.0000
  H   H1017     1.0  0.50303  0.00414  0.58450  1.0000
  H   H1018     1.0  0.41310  0.45686  0.57024  1.0000
  H   H1019     1.0  0.51513  0.46119  0.92983  1.0000
  H   H1020     1.0  0.48204  0.45769  0.97003  1.0000
  H   H1021     1.0  0.47545  0.98351  0.62853  1.0000
  C   C572      1.0  0.49857  0.24145  0.97925  1.0000
  C   C573      1.0  0.54451  0.00297  0.54500  1.0000
  H   H1022     1.0  0.61048  0.42017  0.58019  1.0000
  H   H1023     1.0  0.58361  0.14716  0.68531  1.0000
  C   C574      1.0  0.42553  0.00959  0.53869  1.0000
  C   C575      1.0  0.48886  0.43163  0.72211  1.0000
  H   H1024     1.0  0.56097  0.40969  0.74347  1.0000
  C   C576      1.0  0.49438  0.97948  0.91701  1.0000
  H   H1025     1.0  0.57564  0.10582  0.60887  1.0000
  C   C577      1.0  0.59268  0.09963  0.67322  1.0000
  H   H1026     1.0  0.60698  0.08281  0.71997  1.0000
  C   C578      1.0  0.42570  0.00320  0.97142  1.0000
  H   H1027     1.0  0.59834  0.14626  0.56865  1.0000
  H   H1028     1.0  0.41650  0.99776  0.72876  1.0000
  C   C579      1.0  0.51930  0.46281  0.95694  1.0000
  H   H1029     1.0  0.46716  0.97733  0.97401  1.0000
  H   H1030     1.0  0.50561  0.98908  0.74419  1.0000
  H   H1031     1.0  0.42359  0.30309  0.54332  1.0000
  H   H1032     1.0  0.53255  0.45512  0.74191  1.0000
  H   H1033     1.0  0.52331  0.99661  0.65288  1.0000
  H   H1034     1.0  0.62107  0.38467  0.96473  1.0000
  H   H1035     1.0  0.42584  0.02461  0.52039  1.0000
  C   C580      1.0  0.45111  0.44189  0.52206  1.0000
  C   C581      1.0  0.49051  0.21940  0.96610  1.0000
  C   C582      1.0  0.51809  0.00855  0.53445  1.0000
  C   C583      1.0  0.43167  0.98580  0.52113  1.0000
  N   N34       1.0  0.56050  0.99235  0.51789  1.0000
  H   H1036     1.0  0.34001  0.98560  0.66838  1.0000
  H   H1037     1.0  0.59311  0.15471  0.98511  1.0000
  H   H1038     1.0  0.43652  0.43072  0.53186  1.0000
  H   H1039     1.0  0.57794  0.40571  0.98933  1.0000
  H   H1040     1.0  0.47071  0.28832  0.50862  1.0000
  H   H1041     1.0  0.58225  0.45872  0.90989  1.0000
  H   H1042     1.0  0.47686  0.99141  0.79007  1.0000
  H   H1043     1.0  0.63103  0.41780  0.63598  1.0000
  H   H1044     1.0  0.63694  0.14187  0.66646  1.0000
  H   H1045     1.0  0.45900  0.98581  0.89846  1.0000
  H   H1046     1.0  0.50503  0.47231  0.69582  1.0000
  H   H1047     1.0  0.52805  0.98636  0.81858  1.0000
  S   S139      1.0  0.63827  0.03506  0.69810  1.0000
  H   H1048     1.0  0.49437  0.46407  0.75346  1.0000
  C   C584      1.0  0.51009  0.97944  0.81215  1.0000
  H   H1049     1.0  0.54385  0.99083  0.56711  1.0000
  S   S140      1.0  0.37709  0.47283  0.72546  1.0000
  H   H1050     1.0  0.40966  0.00348  0.98797  1.0000
  C   C585      1.0  0.47193  0.42491  0.51269  1.0000
  H   H1051     1.0  0.59865  0.98479  0.51239  1.0000
  C   C586      1.0  0.51976  0.21915  0.50643  1.0000
  H   H1052     1.0  0.44453  0.45065  0.49875  1.0000
  H   H1053     1.0  0.47845  0.02571  0.98534  1.0000
  H   H1054     1.0  0.58753  0.17694  0.51791  1.0000
  C   C587      1.0  0.51060  0.24195  0.49712  1.0000
  C   C588      1.0  0.57693  0.17011  0.49630  1.0000
  H   H1055     1.0  0.36833  0.63544  0.08804  1.0000
  H   H1056     1.0  0.45849  0.50802  0.12499  1.0000
  S   S141      1.0  0.56483  0.96039  0.16216  1.0000
  H   H1057     1.0  0.46633  0.83784  0.31933  1.0000
  S   S142      1.0  0.44168  0.84918  0.00976  1.0000
  S   S143      1.0  0.46523  0.88275  0.43942  1.0000
  Fe  Fe68      1.0  0.50335  0.86320  0.04993  1.0000
  S   S144      1.0  0.48148  0.83186  0.06697  1.0000
  S   S145      1.0  0.54138  0.87332  0.06424  1.0000
  Fe  Fe69      1.0  0.47406  0.82425  0.01180  1.0000
  H   H1058     1.0  0.43947  0.70528  0.11618  1.0000
  Fe  Fe70      1.0  0.45051  0.85876  0.06363  1.0000
  S   S146      1.0  0.42006  0.86019  0.10150  1.0000
  H   H1059     1.0  0.52350  0.93213  0.15384  1.0000
  S   S147      1.0  0.47288  0.89019  0.04989  1.0000
  H   H1060     1.0  0.45091  0.57175  0.20922  1.0000
  Fe  Fe71      1.0  0.38002  0.94668  0.25221  1.0000
  S   S148      1.0  0.35254  0.92118  0.27072  1.0000
  S   S149      1.0  0.40815  0.94344  0.21098  1.0000
  Fe  Fe72      1.0  0.32652  0.95302  0.27231  1.0000
  Fe  Fe73      1.0  0.36403  0.93249  0.32274  1.0000
  S   S150      1.0  0.36602  0.90742  0.36765  1.0000
  S   S151      1.0  0.39382  0.95510  0.30423  1.0000
  C   C589      1.0  0.47067  0.71630  0.48466  1.0000
  H   H1061     1.0  0.32726  0.96222  0.12649  1.0000
  H   H1062     1.0  0.43719  0.73634  0.48232  1.0000
  H   H1063     1.0  0.38218  0.90930  0.08359  1.0000
  Fe  Fe74      1.0  0.37285  0.51740  0.15909  1.0000
  S   S152      1.0  0.40622  0.50516  0.18599  1.0000
  S   S153      1.0  0.37193  0.54151  0.11298  1.0000
  Fe  Fe75      1.0  0.38481  0.50898  0.23353  1.0000
  S   S154      1.0  0.40339  0.51532  0.28400  1.0000
  S   S155      1.0  0.35222  0.52492  0.20712  1.0000
  C   C590      1.0  0.58374  0.49771  0.43876  1.0000
  S   S156      1.0  0.43972  0.62418  0.46815  1.0000
  S   S157      1.0  0.46407  0.56522  0.02694  1.0000
  Fe  Fe76      1.0  0.49962  0.60849  0.42482  1.0000
  S   S158      1.0  0.47348  0.63627  0.40406  1.0000
  S   S159      1.0  0.53495  0.60021  0.39789  1.0000
  Fe  Fe77      1.0  0.46918  0.65003  0.45729  1.0000
  H   H1064     1.0  0.40020  0.92092  0.47937  1.0000
  Fe  Fe78      1.0  0.44566  0.60933  0.41606  1.0000
  S   S160      1.0  0.41420  0.60639  0.37970  1.0000
  H   H1065     1.0  0.47658  0.76642  0.37824  1.0000
  S   S161      1.0  0.47189  0.58070  0.43344  1.0000
  C   C591      1.0  0.40602  0.54115  0.30967  1.0000
  C   C592      1.0  0.42061  0.53960  0.33859  1.0000
  C   C593      1.0  0.42369  0.55959  0.35972  1.0000
  C   C594      1.0  0.41161  0.58124  0.35267  1.0000
  C   C595      1.0  0.39669  0.58274  0.32401  1.0000
  C   C596      1.0  0.39407  0.56284  0.30235  1.0000
  H   H1066     1.0  0.42956  0.52280  0.34484  1.0000
  H   H1067     1.0  0.43502  0.55814  0.38184  1.0000
  H   H1068     1.0  0.38723  0.59942  0.31848  1.0000
  H   H1069     1.0  0.38269  0.56422  0.28026  1.0000
  C   C597      1.0  0.39773  0.54781  0.08931  1.0000
  C   C598      1.0  0.42074  0.54503  0.10295  1.0000
  C   C599      1.0  0.44086  0.55064  0.08358  1.0000
  C   C600      1.0  0.43816  0.55920  0.05052  1.0000
  C   C601      1.0  0.41516  0.56189  0.03680  1.0000
  C   C602      1.0  0.39502  0.55640  0.05623  1.0000
  H   H1070     1.0  0.42303  0.53866  0.12848  1.0000
  H   H1071     1.0  0.45861  0.54839  0.09430  1.0000
  C   C603      1.0  0.53568  0.56046  0.00990  1.0000
  H   H1072     1.0  0.37726  0.55855  0.04545  1.0000
  C   C604      1.0  0.55758  0.52670  0.35309  1.0000
  C   C605      1.0  0.53530  0.52993  0.36902  1.0000
  C   C606      1.0  0.52838  0.55215  0.38328  1.0000
  C   C607      1.0  0.54337  0.57173  0.38098  1.0000
  C   C608      1.0  0.56551  0.56867  0.36457  1.0000
  C   C609      1.0  0.57269  0.54623  0.35083  1.0000
  H   H1073     1.0  0.52316  0.51519  0.37017  1.0000
  H   H1074     1.0  0.51128  0.55423  0.39565  1.0000
  H   H1075     1.0  0.57725  0.58374  0.36265  1.0000
  H   H1076     1.0  0.58980  0.54411  0.33843  1.0000
  H   H1077     1.0  0.36894  0.94733  0.43891  1.0000
  N   N35       1.0  0.32450  0.92649  0.14728  1.0000
  C   C610      1.0  0.46213  0.48853  0.12815  1.0000
  H   H1078     1.0  0.44899  0.76248  0.35610  1.0000
  C   C611      1.0  0.45981  0.62725  0.08709  1.0000
  H   H1079     1.0  0.37843  0.81764  0.45376  1.0000
  H   H1080     1.0  0.51091  0.50605  0.30238  1.0000
  H   H1081     1.0  0.48921  0.56232  0.23661  1.0000
  H   H1082     1.0  0.31101  0.86186  0.22177  1.0000
  H   H1083     1.0  0.57498  0.84924  0.11854  1.0000
  C   C612      1.0  0.39371  0.90071  0.38737  1.0000
  C   C613      1.0  0.39405  0.88904  0.41867  1.0000
  C   C614      1.0  0.41587  0.88364  0.43517  1.0000
  C   C615      1.0  0.43746  0.88960  0.42015  1.0000
  C   C616      1.0  0.43713  0.90121  0.38887  1.0000
  C   C617      1.0  0.41533  0.90682  0.37255  1.0000
  H   H1084     1.0  0.37735  0.88431  0.43024  1.0000
  H   H1085     1.0  0.31786  0.48849  0.37805  1.0000
  H   H1086     1.0  0.45381  0.90584  0.37714  1.0000
  H   H1087     1.0  0.41526  0.91567  0.34838  1.0000
  C   C618      1.0  0.41721  0.88325  0.13216  1.0000
  C   C619      1.0  0.40013  0.88128  0.15784  1.0000
  C   C620      1.0  0.39724  0.89945  0.18241  1.0000
  C   C621      1.0  0.41121  0.91988  0.18119  1.0000
  C   C622      1.0  0.42817  0.92187  0.15543  1.0000
  C   C623      1.0  0.43123  0.90364  0.13109  1.0000
  H   H1088     1.0  0.38930  0.86551  0.15891  1.0000
  H   H1089     1.0  0.38442  0.89753  0.20245  1.0000
  H   H1090     1.0  0.43911  0.93758  0.15441  1.0000
  H   H1091     1.0  0.44442  0.90536  0.11154  1.0000
  C   C624      1.0  0.55875  0.93692  0.13346  1.0000
  C   C625      1.0  0.57522  0.92894  0.10924  1.0000
  C   C626      1.0  0.56954  0.90967  0.08773  1.0000
  C   C627      1.0  0.54724  0.89859  0.08984  1.0000
  C   C628      1.0  0.53059  0.90706  0.11344  1.0000
  C   C629      1.0  0.53642  0.92598  0.13530  1.0000
  H   H1092     1.0  0.59239  0.93734  0.10737  1.0000
  H   H1093     1.0  0.58252  0.90315  0.06953  1.0000
  H   H1094     1.0  0.51342  0.89862  0.11540  1.0000
  H   H1095     1.0  0.30873  0.89196  0.23829  1.0000
  H   H1096     1.0  0.62034  0.92817  0.20758  1.0000
  C   C630      1.0  0.47623  0.72351  0.01845  1.0000
  H   H1097     1.0  0.49807  0.62065  0.09271  1.0000
  H   H1098     1.0  0.36753  0.59304  0.48798  1.0000
  H   H1099     1.0  0.51867  0.96660  0.37520  1.0000
  N   N36       1.0  0.41647  0.64061  0.07079  1.0000
  H   H1100     1.0  0.44982  0.86529  0.32824  1.0000
  H   H1101     1.0  0.38214  0.64358  0.12729  1.0000
  S   S162      1.0  0.35894  0.48018  0.15207  1.0000
  C   C631      1.0  0.36473  0.90898  0.06998  1.0000
  H   H1102     1.0  0.62425  0.89641  0.14381  1.0000
  H   H1103     1.0  0.44197  0.72108  0.07693  1.0000
  H   H1104     1.0  0.49086  0.53174  0.22523  1.0000
  H   H1105     1.0  0.32888  0.92355  0.07408  1.0000
  C   C632      1.0  0.64124  0.88291  0.24218  1.0000
  C   C633      1.0  0.45020  0.49707  0.01712  1.0000
  H   H1106     1.0  0.58456  0.88725  0.14742  1.0000
  H   H1107     1.0  0.42643  0.55165  0.21306  1.0000
  S   S163      1.0  0.61612  0.48898  0.25943  1.0000
  H   H1108     1.0  0.50659  0.70207  0.49027  1.0000
  C   C634      1.0  0.31443  0.50882  0.31722  1.0000
  H   H1109     1.0  0.35920  0.90992  0.13700  1.0000
  C   C635      1.0  0.38079  0.62910  0.10809  1.0000
  C   C636      1.0  0.48472  0.62336  0.07215  1.0000
  H   H1110     1.0  0.42652  0.66138  0.11492  1.0000
  H   H1111     1.0  0.51006  0.81156  0.46348  1.0000
  H   H1112     1.0  0.54133  0.69193  0.01368  1.0000
  C   C637      1.0  0.31619  0.88952  0.18445  1.0000
  H   H1113     1.0  0.41770  0.61993  0.11681  1.0000
  C   C638      1.0  0.54069  0.65387  0.01922  1.0000
  H   H1114     1.0  0.41447  0.50417  0.03266  1.0000
  H   H1115     1.0  0.56597  0.51716  0.48073  1.0000
  S   S164      1.0  0.49772  0.62433  0.47743  1.0000
  C   C639      1.0  0.61270  0.91420  0.19083  1.0000
  H   H1116     1.0  0.45089  0.48180  0.14884  1.0000
  C   C640      1.0  0.41451  0.80175  0.45636  1.0000
  H   H1117     1.0  0.45225  0.67812  0.06942  1.0000
  H   H1118     1.0  0.36060  0.95052  0.18685  1.0000
  C   C641      1.0  0.58807  0.84918  0.13975  1.0000
  H   H1119     1.0  0.33776  0.87871  0.22800  1.0000
  C   C642      1.0  0.48407  0.95240  0.45940  1.0000
  H   H1120     1.0  0.45545  0.48710  0.48679  1.0000
  H   H1121     1.0  0.56559  0.90678  0.19663  1.0000
  C   C643      1.0  0.42491  0.48794  0.02453  1.0000
  C   C644      1.0  0.34565  0.92357  0.08921  1.0000
  C   C645      1.0  0.33120  0.95245  0.15034  1.0000
  H   H1122     1.0  0.42609  0.68687  0.04540  1.0000
  C   C646      1.0  0.39093  0.62195  0.02288  1.0000
  C   C647      1.0  0.57302  0.92572  0.24244  1.0000
  C   C648      1.0  0.35761  0.68246  0.48558  1.0000
  C   C649      1.0  0.44958  0.84545  0.33044  1.0000
  S   S165      1.0  0.56493  0.49805  0.33583  1.0000
  C   C650      1.0  0.48448  0.54415  0.24544  1.0000
  H   H1123     1.0  0.60010  0.54179  0.46448  1.0000
  H   H1124     1.0  0.46249  0.53097  0.48437  1.0000
  C   C651      1.0  0.49179  0.80196  0.41691  1.0000
  H   H1125     1.0  0.48878  0.95726  0.48575  1.0000
  C   C652      1.0  0.47323  0.50520  0.30870  1.0000
  H   H1126     1.0  0.46617  0.82989  0.43181  1.0000
  H   H1127     1.0  0.42537  0.83245  0.42804  1.0000
  H   H1128     1.0  0.49450  0.80551  0.38982  1.0000
  H   H1129     1.0  0.49609  0.96194  0.44213  1.0000
  H   H1130     1.0  0.49517  0.50110  0.26394  1.0000
  H   H1131     1.0  0.52839  0.96855  0.10054  1.0000
  H   H1132     1.0  0.36162  0.48637  0.30539  1.0000
  H   H1133     1.0  0.45444  0.95482  0.42484  1.0000
  C   C653      1.0  0.39509  0.67501  0.45162  1.0000
  H   H1134     1.0  0.39044  0.63080  0.47017  1.0000
  H   H1135     1.0  0.48121  0.48574  0.13541  1.0000
  H   H1136     1.0  0.58753  0.54574  0.42271  1.0000
  H   H1137     1.0  0.42271  0.92357  0.02985  1.0000
  C   C654      1.0  0.38406  0.66920  0.41665  1.0000
  Fe  Fe79      1.0  0.59688  0.48081  0.30775  1.0000
  H   H1138     1.0  0.39959  0.83491  0.47791  1.0000
  H   H1139     1.0  0.42367  0.49324  0.49204  1.0000
  H   H1140     1.0  0.31615  0.92685  0.20056  1.0000
  C   C655      1.0  0.39766  0.68136  0.38843  1.0000
  C   C656      1.0  0.63235  0.90609  0.16538  1.0000
  H   H1141     1.0  0.41300  0.66591  0.45227  1.0000
  C   C657      1.0  0.43021  0.47731  0.08510  1.0000
  H   H1142     1.0  0.41285  0.71403  0.09246  1.0000
  H   H1143     1.0  0.60127  0.49718  0.45224  1.0000
  H   H1144     1.0  0.55645  0.47950  0.49022  1.0000
  H   H1145     1.0  0.36160  0.63970  0.45576  1.0000
  H   H1146     1.0  0.40575  0.60951  0.01585  1.0000
  H   H1147     1.0  0.40675  0.94931  0.04757  1.0000
  C   C658      1.0  0.56939  0.51954  0.45348  1.0000
  H   H1148     1.0  0.35239  0.61307  0.13680  1.0000
  H   H1149     1.0  0.38530  0.64957  0.41174  1.0000
  H   H1150     1.0  0.36493  0.67494  0.41526  1.0000
  C   C659      1.0  0.43306  0.68360  0.07125  1.0000
  H   H1151     1.0  0.57250  0.53145  0.27266  1.0000
  H   H1152     1.0  0.42907  0.80076  0.47524  1.0000
  H   H1153     1.0  0.39763  0.49160  0.35853  1.0000
  C   C660      1.0  0.60007  0.87118  0.19358  1.0000
  H   H1154     1.0  0.40808  0.78331  0.45216  1.0000
  H   H1155     1.0  0.43074  0.53693  0.48903  1.0000
  C   C661      1.0  0.44059  0.63119  0.05907  1.0000
  H   H1156     1.0  0.35194  0.94222  0.09092  1.0000
  H   H1157     1.0  0.44887  0.76804  0.43333  1.0000
  H   H1158     1.0  0.38997  0.67616  0.36365  1.0000
  H   H1159     1.0  0.39631  0.70117  0.39108  1.0000
  H   H1160     1.0  0.41685  0.67554  0.38898  1.0000
  H   H1161     1.0  0.56545  0.55152  0.23805  1.0000
  H   H1162     1.0  0.32639  0.87697  0.16786  1.0000
  H   H1163     1.0  0.44063  0.92703  0.46581  1.0000
  H   H1164     1.0  0.47803  0.76008  0.03697  1.0000
  H   H1165     1.0  0.59898  0.92394  0.17550  1.0000
  H   H1166     1.0  0.61540  0.90864  0.25890  1.0000
  C   C662      1.0  0.35224  0.48754  0.33007  1.0000
  H   H1167     1.0  0.40779  0.81193  0.40474  1.0000
  N   N37       1.0  0.41528  0.95607  0.47577  1.0000
  C   C663      1.0  0.44773  0.83860  0.36755  1.0000
  H   H1168     1.0  0.35603  0.50585  0.33991  1.0000
  H   H1169     1.0  0.43880  0.61358  0.04616  1.0000
  C   C664      1.0  0.42306  0.81299  0.42290  1.0000
  C   C665      1.0  0.36959  0.60754  0.12484  1.0000
  H   H1170     1.0  0.51700  0.93995  0.05842  1.0000
  H   H1171     1.0  0.38063  0.96094  0.38060  1.0000
  H   H1172     1.0  0.44184  0.52130  0.45229  1.0000
  C   C666      1.0  0.45594  0.73699  0.48895  1.0000
  H   H1173     1.0  0.58311  0.94075  0.23184  1.0000
  H   H1174     1.0  0.38167  0.59979  0.14452  1.0000
  C   C667      1.0  0.39381  0.81651  0.47160  1.0000
  H   H1175     1.0  0.54524  0.97122  0.00935  1.0000
  N   N38       1.0  0.44563  0.80209  0.40765  1.0000
  C   C668      1.0  0.34147  0.91267  0.12451  1.0000
  H   H1176     1.0  0.37055  0.94774  0.14406  1.0000
  H   H1177     1.0  0.46081  0.64277  0.10447  1.0000
  C   C669      1.0  0.54672  0.93372  0.24505  1.0000
  H   H1178     1.0  0.55089  0.74347  0.01791  1.0000
  H   H1179     1.0  0.39921  0.69433  0.45221  1.0000
  N   N39       1.0  0.49716  0.53848  0.27826  1.0000
  C   C670      1.0  0.48810  0.55414  0.30683  1.0000
  C   C671      1.0  0.49504  0.51227  0.28724  1.0000
  C   C672      1.0  0.52344  0.54343  0.27363  1.0000
  C   C673      1.0  0.49132  0.58150  0.30284  1.0000
  C   C674      1.0  0.53750  0.52616  0.24953  1.0000
  H   H1180     1.0  0.35887  0.70988  0.44597  1.0000
  C   C675      1.0  0.44058  0.94597  0.47474  1.0000
  C   C676      1.0  0.47969  0.59536  0.33198  1.0000
  H   H1181     1.0  0.33496  0.89425  0.11993  1.0000
  H   H1182     1.0  0.49728  0.54877  0.33060  1.0000
  H   H1183     1.0  0.46887  0.55139  0.31178  1.0000
  H   H1184     1.0  0.41643  0.48227  0.00039  1.0000
  S   S166      1.0  0.45774  0.68964  0.46776  1.0000
  H   H1185     1.0  0.53285  0.54297  0.29840  1.0000
  H   H1186     1.0  0.52586  0.56182  0.26371  1.0000
  H   H1187     1.0  0.51060  0.58589  0.30311  1.0000
  H   H1188     1.0  0.48300  0.58812  0.27911  1.0000
  C   C677      1.0  0.56378  0.53294  0.24748  1.0000
  H   H1189     1.0  0.31561  0.52078  0.33975  1.0000
  C   C678      1.0  0.45801  0.95948  0.45166  1.0000
  H   H1190     1.0  0.43116  0.84744  0.37730  1.0000
  H   H1191     1.0  0.52086  0.65340  0.01934  1.0000
  C   C679      1.0  0.45686  0.54259  0.24508  1.0000
  H   H1192     1.0  0.48305  0.61479  0.32932  1.0000
  H   H1193     1.0  0.46005  0.59287  0.33204  1.0000
  H   H1194     1.0  0.48738  0.58930  0.35647  1.0000
  H   H1195     1.0  0.54520  0.95008  0.26103  1.0000
  C   C680      1.0  0.44374  0.77507  0.40802  1.0000
  H   H1196     1.0  0.55563  0.95522  0.04536  1.0000
  H   H1197     1.0  0.42437  0.49638  0.08834  1.0000
  H   H1198     1.0  0.54708  0.65459  0.04575  1.0000
  S   S167      1.0  0.33689  0.96288  0.32567  1.0000
  H   H1199     1.0  0.46341  0.84606  0.38086  1.0000
  H   H1200     1.0  0.46807  0.72353  0.36902  1.0000
  H   H1201     1.0  0.43579  0.94040  0.06381  1.0000
  Fe  Fe80      1.0  0.34006  0.48686  0.20175  1.0000
  C   C681      1.0  0.47582  0.74873  0.01504  1.0000
  H   H1202     1.0  0.57334  0.52051  0.22991  1.0000
  C   C682      1.0  0.54034  0.96650  0.03563  1.0000
  H   H1203     1.0  0.56902  0.91457  0.46861  1.0000
  C   C683      1.0  0.43170  0.70739  0.09051  1.0000
  H   H1204     1.0  0.46901  0.48200  0.07584  1.0000
  H   H1205     1.0  0.48979  0.63924  0.05727  1.0000
  N   N40       1.0  0.38059  0.66782  0.48179  1.0000
  H   H1206     1.0  0.37327  0.71875  0.48417  1.0000
  C   C684      1.0  0.31484  0.54771  0.28427  1.0000
  H   H1207     1.0  0.59397  0.85707  0.21112  1.0000
  H   H1208     1.0  0.48702  0.93277  0.45580  1.0000
  H   H1209     1.0  0.45570  0.61107  0.10201  1.0000
  C   C685      1.0  0.58321  0.54265  0.44957  1.0000
  N   N41       1.0  0.32554  0.48448  0.32508  1.0000
  H   H1210     1.0  0.48524  0.60724  0.05572  1.0000
  C   C686      1.0  0.44625  0.55265  0.21232  1.0000
  C   C687      1.0  0.44702  0.81100  0.37184  1.0000
  C   C688      1.0  0.51901  0.94911  0.03383  1.0000
  C   C689      1.0  0.32575  0.91534  0.18183  1.0000
  H   H1211     1.0  0.56407  0.86984  0.17100  1.0000
  H   H1212     1.0  0.49465  0.78253  0.42200  1.0000
  H   H1213     1.0  0.50180  0.95841  0.02794  1.0000
  C   C690      1.0  0.35786  0.70900  0.47385  1.0000
  H   H1214     1.0  0.44844  0.55291  0.26594  1.0000
  H   H1215     1.0  0.44794  0.64311  0.03947  1.0000
  H   H1216     1.0  0.40047  0.67208  0.09430  1.0000
  H   H1217     1.0  0.34276  0.67417  0.47112  1.0000
  C   C691      1.0  0.32522  0.52218  0.28687  1.0000
  H   H1218     1.0  0.42482  0.76987  0.40382  1.0000
  C   C692      1.0  0.40603  0.62251  0.09424  1.0000
  C   C693      1.0  0.56742  0.95133  0.48709  1.0000
  H   H1219     1.0  0.60509  0.87867  0.26080  1.0000
  H   H1220     1.0  0.52242  0.57089  0.02515  1.0000
  C   C694      1.0  0.58297  0.87080  0.16258  1.0000
  H   H1221     1.0  0.60634  0.85001  0.12901  1.0000
  H   H1222     1.0  0.38378  0.48775  0.08882  1.0000
  H   H1223     1.0  0.46949  0.73072  0.41319  1.0000
  H   H1224     1.0  0.31987  0.55840  0.30681  1.0000
  H   H1225     1.0  0.37870  0.61230  0.03972  1.0000
  H   H1226     1.0  0.52997  0.52689  0.22364  1.0000
  C   C695      1.0  0.43677  0.95815  0.01523  1.0000
  C   C696      1.0  0.54730  0.47648  0.42448  1.0000
  C   C697      1.0  0.31861  0.88002  0.22037  1.0000
  H   H1227     1.0  0.41600  0.87482  0.45937  1.0000
  H   H1228     1.0  0.54800  0.63720  0.00731  1.0000
  H   H1229     1.0  0.44078  0.72674  0.39282  1.0000
  H   H1230     1.0  0.54788  0.48974  0.40380  1.0000
  C   C698      1.0  0.41860  0.66413  0.08939  1.0000
  C   C699      1.0  0.46655  0.81005  0.42888  1.0000
  H   H1231     1.0  0.43392  0.83893  0.31598  1.0000
  H   H1232     1.0  0.47553  0.51173  0.33501  1.0000
  C   C700      1.0  0.37903  0.48062  0.06362  1.0000
  H   H1233     1.0  0.46289  0.80339  0.35864  1.0000
  H   H1234     1.0  0.46511  0.80326  0.45505  1.0000
  H   H1235     1.0  0.57939  0.92225  0.26854  1.0000
  C   C701      1.0  0.37434  0.64174  0.47722  1.0000
  H   H1236     1.0  0.56646  0.88818  0.23296  1.0000
  H   H1237     1.0  0.53601  0.91944  0.25661  1.0000
  H   H1238     1.0  0.47893  0.71572  0.04311  1.0000
  H   H1239     1.0  0.53921  0.93801  0.21975  1.0000
  C   C702      1.0  0.45905  0.73377  0.38960  1.0000
  H   H1240     1.0  0.53720  0.50732  0.25834  1.0000
  N   N42       1.0  0.60134  0.89499  0.21172  1.0000
  H   H1241     1.0  0.41029  0.94138  0.42557  1.0000
  H   H1242     1.0  0.56707  0.95822  0.46097  1.0000
  H   H1243     1.0  0.54808  0.55075  0.02738  1.0000
  H   H1244     1.0  0.56855  0.67653  0.00259  1.0000
  C   C703      1.0  0.57595  0.90290  0.22014  1.0000
  C   C704      1.0  0.49492  0.71768  0.49337  1.0000
  C   C705      1.0  0.40637  0.95827  0.43980  1.0000
  C   C706      1.0  0.45800  0.76048  0.38103  1.0000
  H   H1245     1.0  0.57211  0.55815  0.45864  1.0000
  H   H1246     1.0  0.34457  0.91451  0.19107  1.0000
  H   H1247     1.0  0.36582  0.59354  0.10568  1.0000
  C   C707      1.0  0.40069  0.64474  0.04017  1.0000
  H   H1248     1.0  0.43135  0.80456  0.35712  1.0000
  C   C708      1.0  0.51128  0.81516  0.43609  1.0000
  H   H1249     1.0  0.34496  0.52348  0.28880  1.0000
  H   H1250     1.0  0.38500  0.65661  0.04631  1.0000
  H   H1251     1.0  0.33859  0.60706  0.47897  1.0000
  H   H1252     1.0  0.55194  0.52223  0.44037  1.0000
  H   H1253     1.0  0.41058  0.65465  0.02056  1.0000
  C   C709      1.0  0.37318  0.97326  0.40017  1.0000
  H   H1254     1.0  0.40577  0.60447  0.08210  1.0000
  H   H1255     1.0  0.32211  0.55652  0.26162  1.0000
  H   H1256     1.0  0.45161  0.52358  0.24650  1.0000
  H   H1257     1.0  0.58632  0.83222  0.15396  1.0000
  H   H1258     1.0  0.50958  0.83480  0.43175  1.0000
  H   H1259     1.0  0.45285  0.54208  0.19030  1.0000
  H   H1260     1.0  0.36718  0.91673  0.04456  1.0000
  C   C710      1.0  0.44441  0.52369  0.47987  1.0000
  H   H1261     1.0  0.45630  0.51293  0.29874  1.0000
  H   H1262     1.0  0.52919  0.80879  0.42738  1.0000
  H   H1263     1.0  0.34119  0.48477  0.07471  1.0000
  Fe  Fe81      1.0  0.46818  0.59794  0.48475  1.0000
  C   C711      1.0  0.42467  0.94188  0.04057  1.0000
  H   H1264     1.0  0.58783  0.50191  0.41192  1.0000
  H   H1265     1.0  0.37806  0.49583  0.04576  1.0000
  H   H1266     1.0  0.35934  0.89004  0.06697  1.0000
  H   H1267     1.0  0.45606  0.50879  0.03814  1.0000
  C   C712      1.0  0.35746  0.95697  0.16084  1.0000
  C   C713      1.0  0.33504  0.72261  0.48449  1.0000
  H   H1268     1.0  0.61801  0.86478  0.18521  1.0000
  C   C714      1.0  0.54886  0.67596  0.00031  1.0000
  H   H1269     1.0  0.32083  0.51272  0.26309  1.0000
  C   C715      1.0  0.61474  0.89149  0.24457  1.0000
  H   H1270     1.0  0.35345  0.97453  0.39687  1.0000
  H   H1271     1.0  0.50795  0.91730  0.00667  1.0000
  H   H1272     1.0  0.31996  0.96174  0.16972  1.0000
  H   H1273     1.0  0.52691  0.76273  0.00260  1.0000
  H   H1274     1.0  0.51187  0.53116  0.00337  1.0000
  H   H1275     1.0  0.31898  0.71392  0.47380  1.0000
  Fe  Fe82      1.0  0.46850  0.86855  0.49262  1.0000
  C   C716      1.0  0.55784  0.92587  0.48577  1.0000
  H   H1276     1.0  0.63218  0.93981  0.13789  1.0000
  H   H1277     1.0  0.41291  0.56776  0.01102  1.0000
  H   H1278     1.0  0.53401  0.48393  0.44278  1.0000
  C   C717      1.0  0.47074  0.47800  0.30998  1.0000
  H   H1279     1.0  0.45483  0.95011  0.01041  1.0000
  H   H1280     1.0  0.33542  0.74131  0.47508  1.0000
  H   H1281     1.0  0.36100  0.63989  0.99695  1.0000
  H   H1282     1.0  0.53977  0.91897  0.01291  1.0000
  C   C718      1.0  0.37917  0.96397  0.43537  1.0000
  H   H1283     1.0  0.41611  0.97247  0.42627  1.0000
  C   C719      1.0  0.39968  0.93832  0.49334  1.0000
  H   H1284     1.0  0.38063  0.94452  0.49309  1.0000
  H   H1285     1.0  0.46354  0.48230  0.01387  1.0000
  C   C720      1.0  0.52322  0.92966  0.00710  1.0000
  H   H1286     1.0  0.53907  0.92597  0.47632  1.0000
  C   C721      1.0  0.45705  0.47504  0.09537  1.0000
  H   H1287     1.0  0.63141  0.96732  0.29221  1.0000
  C   C722      1.0  0.31416  0.47574  0.35702  1.0000
  S   S168      1.0  0.47459  0.67666  0.99650  1.0000
  H   H1288     1.0  0.38784  0.80793  0.49520  1.0000
  Fe  Fe83      1.0  0.46670  0.87830  0.99645  1.0000
  H   H1289     1.0  0.39306  0.91021  0.57101  1.0000
  S   S169      1.0  0.34122  0.96343  0.82016  1.0000
  S   S170      1.0  0.61478  0.93161  0.65784  1.0000
  H   H1290     1.0  0.57908  0.69656  0.90324  1.0000
  S   S171      1.0  0.45064  0.83719  0.51621  1.0000
  S   S172      1.0  0.46395  0.90457  0.95320  1.0000
  Fe  Fe84      1.0  0.50065  0.87811  0.55438  1.0000
  S   S173      1.0  0.48600  0.84661  0.58249  1.0000
  S   S174      1.0  0.52024  0.91151  0.57221  1.0000
  Fe  Fe85      1.0  0.48761  0.82580  0.53307  1.0000
  H   H1291     1.0  0.44948  0.77561  0.87222  1.0000
  Fe  Fe86      1.0  0.45009  0.85978  0.56361  1.0000
  S   S175      1.0  0.41862  0.86145  0.59929  1.0000
  H   H1292     1.0  0.59674  0.88800  0.62842  1.0000
  S   S176      1.0  0.46427  0.89203  0.53805  1.0000
  C   C723      1.0  0.48720  0.84443  0.90985  1.0000
  Fe  Fe87      1.0  0.38453  0.95064  0.74566  1.0000
  S   S177      1.0  0.35793  0.92390  0.76265  1.0000
  S   S178      1.0  0.41093  0.94862  0.70245  1.0000
  Fe  Fe88      1.0  0.33138  0.95510  0.76623  1.0000
  Fe  Fe89      1.0  0.36927  0.93402  0.81519  1.0000
  S   S179      1.0  0.37285  0.90678  0.85722  1.0000
  S   S180      1.0  0.39838  0.95796  0.79796  1.0000
  H   H1293     1.0  0.53847  0.71530  0.89691  1.0000
  H   H1294     1.0  0.50605  0.70204  0.85239  1.0000
  S   S181      1.0  0.56666  0.50935  0.80760  1.0000
  H   H1295     1.0  0.41175  0.84983  0.91451  1.0000
  Fe  Fe90      1.0  0.37454  0.52009  0.65511  1.0000
  S   S182      1.0  0.40892  0.50796  0.67911  1.0000
  S   S183      1.0  0.37351  0.54630  0.61119  1.0000
  Fe  Fe91      1.0  0.38946  0.51075  0.72821  1.0000
  S   S184      1.0  0.41375  0.51859  0.77287  1.0000
  S   S185      1.0  0.35552  0.52627  0.70482  1.0000
  H   H1296     1.0  0.40003  0.75293  0.87843  1.0000
  S   S186      1.0  0.44078  0.61959  0.96514  1.0000
  C   C724      1.0  0.44623  0.50233  0.53604  1.0000
  Fe  Fe92      1.0  0.50313  0.60193  0.92810  1.0000
  S   S187      1.0  0.48149  0.63379  0.90906  1.0000
  S   S188      1.0  0.54163  0.59181  0.91465  1.0000
  Fe  Fe93      1.0  0.47317  0.64273  0.96336  1.0000
  C   C725      1.0  0.41657  0.97440  0.92438  1.0000
  Fe  Fe94      1.0  0.45069  0.60848  0.91214  1.0000
  S   S189      1.0  0.42239  0.60852  0.87095  1.0000
  H   H1297     1.0  0.37888  0.86104  0.79097  1.0000
  S   S190      1.0  0.47288  0.57621  0.92810  1.0000
  C   C726      1.0  0.41542  0.54405  0.79935  1.0000
  C   C727      1.0  0.43414  0.54472  0.82304  1.0000
  C   C728      1.0  0.43652  0.56439  0.84491  1.0000
  C   C729      1.0  0.42007  0.58364  0.84340  1.0000
  C   C730      1.0  0.40158  0.58325  0.81920  1.0000
  C   C731      1.0  0.39922  0.56350  0.79721  1.0000
  H   H1298     1.0  0.44681  0.52982  0.82445  1.0000
  H   H1299     1.0  0.45101  0.56461  0.86299  1.0000
  H   H1300     1.0  0.38884  0.59814  0.81776  1.0000
  H   H1301     1.0  0.38469  0.56316  0.77910  1.0000
  C   C732      1.0  0.39970  0.55548  0.59038  1.0000
  C   C733      1.0  0.42250  0.55098  0.60397  1.0000
  C   C734      1.0  0.44299  0.55762  0.58620  1.0000
  C   C735      1.0  0.44094  0.56923  0.55497  1.0000
  C   C736      1.0  0.41813  0.57428  0.54165  1.0000
  C   C737      1.0  0.39761  0.56737  0.55931  1.0000
  H   H1302     1.0  0.42435  0.54221  0.62804  1.0000
  H   H1303     1.0  0.46056  0.55347  0.59647  1.0000
  H   H1304     1.0  0.43393  0.50377  0.60047  1.0000
  H   H1305     1.0  0.38003  0.57096  0.54868  1.0000
  C   C738      1.0  0.56070  0.53266  0.83717  1.0000
  C   C739      1.0  0.53752  0.54306  0.83804  1.0000
  C   C740      1.0  0.53158  0.56140  0.86123  1.0000
  C   C741      1.0  0.54875  0.56943  0.88413  1.0000
  C   C742      1.0  0.57204  0.55925  0.88310  1.0000
  C   C743      1.0  0.57801  0.54090  0.85977  1.0000
  H   H1306     1.0  0.52400  0.53682  0.82074  1.0000
  H   H1307     1.0  0.51363  0.56915  0.86161  1.0000
  H   H1308     1.0  0.58550  0.56547  0.90056  1.0000
  H   H1309     1.0  0.59595  0.53314  0.85926  1.0000
  H   H1310     1.0  0.39790  0.79660  0.86734  1.0000
  C   C744      1.0  0.47345  0.70833  0.99029  1.0000
  H   H1311     1.0  0.48804  0.52756  0.86151  1.0000
  H   H1312     1.0  0.41895  0.75172  0.84148  1.0000
  C   C745      1.0  0.52097  0.48915  0.96962  1.0000
  H   H1313     1.0  0.45977  0.95436  0.94477  1.0000
  C   C746      1.0  0.40523  0.93320  0.53089  1.0000
  S   S191      1.0  0.50575  0.85640  0.50687  1.0000
  H   H1314     1.0  0.35699  0.97359  0.89655  1.0000
  H   H1315     1.0  0.33377  0.96195  0.61414  1.0000
  C   C747      1.0  0.39830  0.90660  0.88362  1.0000
  C   C748      1.0  0.39679  0.89666  0.91592  1.0000
  C   C749      1.0  0.41693  0.89561  0.93731  1.0000
  C   C750      1.0  0.43873  0.90441  0.92641  1.0000
  C   C751      1.0  0.44032  0.91422  0.89403  1.0000
  C   C752      1.0  0.42014  0.91535  0.87268  1.0000
  H   H1316     1.0  0.37994  0.88980  0.92445  1.0000
  H   H1317     1.0  0.41553  0.88820  0.96234  1.0000
  H   H1318     1.0  0.45715  0.92115  0.88555  1.0000
  H   H1319     1.0  0.42152  0.92285  0.84772  1.0000
  C   C753      1.0  0.41635  0.88571  0.62795  1.0000
  C   C754      1.0  0.40176  0.88399  0.65651  1.0000
  C   C755      1.0  0.39959  0.90323  0.67951  1.0000
  C   C756      1.0  0.41155  0.92449  0.67355  1.0000
  C   C757      1.0  0.42543  0.92644  0.64445  1.0000
  C   C758      1.0  0.42826  0.90701  0.62210  1.0000
  H   H1320     1.0  0.39232  0.86762  0.66103  1.0000
  H   H1321     1.0  0.38874  0.90155  0.70181  1.0000
  H   H1322     1.0  0.43403  0.94308  0.63922  1.0000
  H   H1323     1.0  0.43921  0.90869  0.59996  1.0000
  C   C759      1.0  0.58834  0.92570  0.63444  1.0000
  C   C760      1.0  0.57160  0.94396  0.62713  1.0000
  C   C761      1.0  0.55114  0.93916  0.60775  1.0000
  C   C762      1.0  0.54672  0.91591  0.59603  1.0000
  C   C763      1.0  0.56320  0.89741  0.60367  1.0000
  C   C764      1.0  0.58394  0.90233  0.62283  1.0000
  C   C765      1.0  0.36295  0.62936  0.50795  1.0000
  H   H1324     1.0  0.53871  0.95363  0.60178  1.0000
  H   H1325     1.0  0.56008  0.87940  0.59473  1.0000
  C   C766      1.0  0.48946  0.76004  0.51032  1.0000
  H   H1326     1.0  0.34549  0.59632  0.52075  1.0000
  H   H1327     1.0  0.35700  0.92609  0.63257  1.0000
  N   N43       1.0  0.44140  0.48074  0.55748  1.0000
  H   H1328     1.0  0.42259  0.95727  0.91252  1.0000
  H   H1329     1.0  0.45755  0.86191  0.88597  1.0000
  S   S192      1.0  0.50221  0.78699  0.52656  1.0000
  C   C767      1.0  0.47031  0.74396  0.95502  1.0000
  C   C768      1.0  0.54044  0.52799  0.96505  1.0000
  C   C769      1.0  0.37681  0.62824  0.99087  1.0000
  H   H1330     1.0  0.47761  0.50944  0.59078  1.0000
  C   C770      1.0  0.48193  0.96455  0.62726  1.0000
  C   C771      1.0  0.57347  0.49024  0.94028  1.0000
  C   C772      1.0  0.42383  0.69367  0.55038  1.0000
  H   H1331     1.0  0.46942  0.95430  0.61118  1.0000
  H   H1332     1.0  0.53373  0.49950  0.67240  1.0000
  C   C773      1.0  0.39713  0.85920  0.80209  1.0000
  C   C774      1.0  0.39608  0.66970  0.51302  1.0000
  C   C775      1.0  0.40469  0.69499  0.52270  1.0000
  H   H1333     1.0  0.61948  0.96471  0.59612  1.0000
  C   C776      1.0  0.55240  0.94755  0.72361  1.0000
  C   C777      1.0  0.44512  0.48778  0.59392  1.0000
  H   H1334     1.0  0.46516  0.52264  0.89266  1.0000
  C   C778      1.0  0.45004  0.51204  0.98495  1.0000
  C   C779      1.0  0.41759  0.79896  0.86515  1.0000
  C   C780      1.0  0.47923  0.51380  0.87692  1.0000
  C   C781      1.0  0.59010  0.47617  0.91656  1.0000
  C   C782      1.0  0.47224  0.50000  0.64228  1.0000
  H   H1335     1.0  0.56861  0.66690  0.90858  1.0000
  H   H1336     1.0  0.55835  0.47934  0.68204  1.0000
  H   H1337     1.0  0.40231  0.79736  0.93331  1.0000
  H   H1338     1.0  0.38286  0.85051  0.85028  1.0000
  H   H1339     1.0  0.46821  0.70738  0.93659  1.0000
  N   N44       1.0  0.49408  0.91494  0.69546  1.0000
  C   C783      1.0  0.49052  0.92703  0.66174  1.0000
  C   C784      1.0  0.50082  0.88865  0.69060  1.0000
  C   C785      1.0  0.47030  0.91621  0.71347  1.0000
  C   C786      1.0  0.51230  0.92739  0.71721  1.0000
  C   C787      1.0  0.53709  0.93149  0.70130  1.0000
  H   H1340     1.0  0.38945  0.70600  0.53262  1.0000
  C   C788      1.0  0.46926  0.90312  0.74786  1.0000
  C   C789      1.0  0.51647  0.88182  0.65969  1.0000
  C   C790      1.0  0.52501  0.85561  0.66096  1.0000
  H   H1341     1.0  0.35169  0.68226  0.51233  1.0000
  H   H1342     1.0  0.45352  0.77405  0.50572  1.0000
  C   C791      1.0  0.44395  0.90459  0.76234  1.0000
  H   H1343     1.0  0.47664  0.91753  0.64685  1.0000
  H   H1344     1.0  0.50687  0.92548  0.64612  1.0000
  H   H1345     1.0  0.51000  0.88144  0.71353  1.0000
  H   H1346     1.0  0.48443  0.87780  0.68733  1.0000
  H   H1347     1.0  0.55390  0.51092  0.90298  1.0000
  C   C792      1.0  0.33022  0.95464  0.63946  1.0000
  H   H1348     1.0  0.43985  0.68332  0.54146  1.0000
  H   H1349     1.0  0.51594  0.91700  0.74061  1.0000
  H   H1350     1.0  0.43525  0.83783  0.83084  1.0000
  H   H1351     1.0  0.54708  0.91418  0.69850  1.0000
  H   H1352     1.0  0.54830  0.95755  0.53365  1.0000
  H   H1353     1.0  0.39611  0.84505  0.97156  1.0000
  H   H1354     1.0  0.48138  0.91151  0.76651  1.0000
  H   H1355     1.0  0.47439  0.88386  0.74534  1.0000
  H   H1356     1.0  0.50586  0.88420  0.63609  1.0000
  H   H1357     1.0  0.53241  0.89299  0.65804  1.0000
  H   H1358     1.0  0.53665  0.85238  0.68335  1.0000
  H   H1359     1.0  0.50950  0.84354  0.66174  1.0000
  H   H1360     1.0  0.53555  0.85123  0.63799  1.0000
  H   H1361     1.0  0.46463  0.93508  0.71874  1.0000
  H   H1362     1.0  0.37283  0.82561  0.95684  1.0000
  H   H1363     1.0  0.47048  0.50095  0.85959  1.0000
  H   H1364     1.0  0.39419  0.56111  0.71774  1.0000
  H   H1365     1.0  0.49978  0.96393  0.61528  1.0000
  Fe  Fe95      1.0  0.46548  0.58929  0.98088  1.0000
  H   H1366     1.0  0.43807  0.92360  0.76600  1.0000
  H   H1367     1.0  0.46517  0.50768  0.53879  1.0000
  H   H1368     1.0  0.45609  0.90864  0.69702  1.0000
  H   H1369     1.0  0.39347  0.81556  0.98926  1.0000
  H   H1370     1.0  0.53549  0.94035  0.67652  1.0000
  S   S193      1.0  0.47309  0.79086  0.97700  1.0000
  N   N45       1.0  0.42437  0.82334  0.87873  1.0000
  H   H1371     1.0  0.55504  0.93956  0.74898  1.0000
  H   H1372     1.0  0.50042  0.67042  0.84886  1.0000
  H   H1373     1.0  0.43223  0.97161  0.54048  1.0000
  C   C793      1.0  0.61610  0.66927  0.92469  1.0000
  H   H1374     1.0  0.54592  0.57321  0.99449  1.0000
  H   H1375     1.0  0.46060  0.51593  0.64792  1.0000
  H   H1376     1.0  0.45394  0.80959  0.90964  1.0000
  H   H1377     1.0  0.44726  0.50048  0.96245  1.0000
  C   C794      1.0  0.53244  0.69992  0.91229  1.0000
  H   H1378     1.0  0.51025  0.55375  0.97104  1.0000
  H   H1379     1.0  0.41678  0.68508  0.57334  1.0000
  H   H1380     1.0  0.46737  0.52107  0.98255  1.0000
  H   H1381     1.0  0.62199  0.68445  0.90902  1.0000
  C   C795      1.0  0.45036  0.82299  0.88955  1.0000
  H   H1382     1.0  0.57447  0.96186  0.63622  1.0000
  H   H1383     1.0  0.49384  0.86151  0.92042  1.0000
  C   C796      1.0  0.54030  0.48555  0.69026  1.0000
  H   H1384     1.0  0.39654  0.89527  0.53102  1.0000
  H   H1385     1.0  0.40304  0.87739  0.80937  1.0000
  H   H1386     1.0  0.37046  0.61154  0.97877  1.0000
  H   H1387     1.0  0.41632  0.58311  0.51755  1.0000
  H   H1388     1.0  0.55846  0.91761  0.51123  1.0000
  H   H1389     1.0  0.41259  0.70431  0.50113  1.0000
  S   S194      1.0  0.62160  0.48656  0.75146  1.0000
  Fe  Fe96      1.0  0.34406  0.48792  0.69888  1.0000
  H   H1390     1.0  0.59316  0.48645  0.89310  1.0000
  H   H1391     1.0  0.42883  0.73774  0.88020  1.0000
  C   C797      1.0  0.52651  0.67934  0.88739  1.0000
  C   C798      1.0  0.42147  0.84140  0.85056  1.0000
  S   S195      1.0  0.36136  0.48252  0.64758  1.0000
  H   H1392     1.0  0.58311  0.50653  0.94818  1.0000
  H   H1393     1.0  0.39774  0.50822  0.54773  1.0000
  H   H1394     1.0  0.42147  0.79762  0.83766  1.0000
  H   H1395     1.0  0.46567  0.95717  0.67452  1.0000
  H   H1396     1.0  0.62687  0.96517  0.55210  1.0000
  S   S196      1.0  0.49740  0.61280  0.98192  1.0000
  N   N46       1.0  0.46776  0.57548  0.72460  1.0000
  C   C799      1.0  0.47694  0.59114  0.69677  1.0000
  C   C800      1.0  0.46806  0.58870  0.75810  1.0000
  C   C801      1.0  0.48462  0.55394  0.72735  1.0000
  C   C802      1.0  0.44308  0.56653  0.71683  1.0000
  C   C803      1.0  0.42324  0.58588  0.71087  1.0000
  C   C804      1.0  0.47750  0.57985  0.66093  1.0000
  C   C805      1.0  0.48034  0.53682  0.75740  1.0000
  C   C806      1.0  0.46359  0.61629  0.75756  1.0000
  C   C807      1.0  0.45995  0.62631  0.79311  1.0000
  C   C808      1.0  0.40003  0.57452  0.69913  1.0000
  C   C809      1.0  0.48591  0.59785  0.63489  1.0000
  C   C810      1.0  0.49956  0.51691  0.75873  1.0000
  H   H1397     1.0  0.49542  0.59690  0.70306  1.0000
  H   H1398     1.0  0.46613  0.60798  0.69447  1.0000
  H   H1399     1.0  0.45494  0.58084  0.77573  1.0000
  H   H1400     1.0  0.48585  0.58632  0.77076  1.0000
  H   H1401     1.0  0.50350  0.55991  0.72923  1.0000
  H   H1402     1.0  0.48360  0.54254  0.70434  1.0000
  H   H1403     1.0  0.44347  0.55399  0.69494  1.0000
  H   H1404     1.0  0.43666  0.55556  0.73795  1.0000
  H   H1405     1.0  0.42830  0.59894  0.69140  1.0000
  H   H1406     1.0  0.41924  0.59542  0.73487  1.0000
  H   H1407     1.0  0.48997  0.56410  0.65977  1.0000
  H   H1408     1.0  0.45939  0.57426  0.65309  1.0000
  H   H1409     1.0  0.46286  0.52804  0.75468  1.0000
  H   H1410     1.0  0.48069  0.54634  0.78199  1.0000
  H   H1411     1.0  0.47939  0.62513  0.74671  1.0000
  H   H1412     1.0  0.44768  0.62157  0.74235  1.0000
  H   H1413     1.0  0.45851  0.64618  0.79231  1.0000
  H   H1414     1.0  0.44311  0.61957  0.80383  1.0000
  H   H1415     1.0  0.47517  0.62104  0.80989  1.0000
  C   C811      1.0  0.50389  0.68526  0.86688  1.0000
  C   C812      1.0  0.48343  0.95410  0.66278  1.0000
  H   H1416     1.0  0.32084  0.96598  0.68976  1.0000
  H   H1417     1.0  0.47332  0.61355  0.63350  1.0000
  H   H1418     1.0  0.50413  0.60408  0.64128  1.0000
  H   H1419     1.0  0.48657  0.58927  0.60956  1.0000
  H   H1420     1.0  0.49642  0.50522  0.78077  1.0000
  H   H1421     1.0  0.49887  0.50585  0.73547  1.0000
  H   H1422     1.0  0.40941  0.85164  0.78265  1.0000
  H   H1423     1.0  0.52470  0.93772  0.98169  1.0000
  H   H1424     1.0  0.59951  0.69165  0.96219  1.0000
  Fe  Fe97      1.0  0.59915  0.48437  0.79813  1.0000
  H   H1425     1.0  0.38568  0.58853  0.69656  1.0000
  H   H1426     1.0  0.49132  0.82979  0.92802  1.0000
  H   H1427     1.0  0.41215  0.65759  0.51054  1.0000
  H   H1428     1.0  0.42439  0.85991  0.85997  1.0000
  C   C813      1.0  0.37114  0.48196  0.55584  1.0000
  H   H1429     1.0  0.42953  0.71205  0.55700  1.0000
  H   H1430     1.0  0.49679  0.84062  0.88592  1.0000
  H   H1431     1.0  0.57030  0.94951  0.71195  1.0000
  C   C814      1.0  0.55677  0.71708  0.95704  1.0000
  H   H1432     1.0  0.45157  0.85148  0.92795  1.0000
  N   N47       1.0  0.53010  0.50740  0.94518  1.0000
  H   H1433     1.0  0.52570  0.74138  0.94884  1.0000
  C   C815      1.0  0.50992  0.51764  0.92378  1.0000
  C   C816      1.0  0.40798  0.83116  0.90691  1.0000
  H   H1434     1.0  0.56672  0.72880  0.93959  1.0000
  H   H1435     1.0  0.51769  0.52449  0.76139  1.0000
  C   C817      1.0  0.40861  0.81562  0.93902  1.0000
  H   H1436     1.0  0.54310  0.65718  0.95283  1.0000
  H   H1437     1.0  0.37666  0.62597  0.52789  1.0000
  H   H1438     1.0  0.42257  0.94177  0.97022  1.0000
  C   C818      1.0  0.46024  0.84679  0.90362  1.0000
  H   H1439     1.0  0.49531  0.52507  0.93979  1.0000
  H   H1440     1.0  0.51640  0.53304  0.90908  1.0000
  H   H1441     1.0  0.54921  0.54078  0.94776  1.0000
  H   H1442     1.0  0.58965  0.66093  0.96106  1.0000
  H   H1443     1.0  0.38404  0.95582  0.93865  1.0000
  C   C819      1.0  0.38899  0.97334  0.92781  1.0000
  H   H1444     1.0  0.43070  0.77687  0.90854  1.0000
  N   N48       1.0  0.55063  0.69389  0.93955  1.0000
  C   C820      1.0  0.39656  0.84284  0.83289  1.0000
  H   H1445     1.0  0.40015  0.94912  0.54640  1.0000
  H   H1446     1.0  0.31566  0.94153  0.63724  1.0000
  H   H1447     1.0  0.35736  0.49562  0.56342  1.0000
  C   C821      1.0  0.41880  0.75337  0.86939  1.0000
  H   H1448     1.0  0.52387  0.66230  0.90095  1.0000
  H   H1449     1.0  0.44362  0.89548  0.78714  1.0000
  H   H1450     1.0  0.39057  0.82505  0.82417  1.0000
  H   H1451     1.0  0.38826  0.63758  0.97256  1.0000
  H   H1452     1.0  0.58375  0.95846  0.56060  1.0000
  C   C822      1.0  0.45661  0.97368  0.95082  1.0000
  H   H1453     1.0  0.43107  0.89575  0.74514  1.0000
  H   H1454     1.0  0.44862  0.94485  0.50030  1.0000
  H   H1455     1.0  0.48814  0.68735  0.88369  1.0000
  H   H1456     1.0  0.50495  0.94503  0.72606  1.0000
  H   H1457     1.0  0.42432  0.92849  0.53536  1.0000
  H   H1458     1.0  0.42686  0.81450  0.95009  1.0000
  S   S197      1.0  0.46739  0.57594  0.53299  1.0000
  H   H1459     1.0  0.38904  0.83159  0.89818  1.0000
  H   H1460     1.0  0.43557  0.51814  0.54505  1.0000
  H   H1461     1.0  0.43570  0.52619  0.98581  1.0000
  H   H1462     1.0  0.35012  0.93266  0.67599  1.0000
  H   H1463     1.0  0.51517  0.70594  0.92380  1.0000
  H   H1464     1.0  0.54400  0.96570  0.72621  1.0000
  H   H1465     1.0  0.40248  0.56562  0.67427  1.0000
  H   H1466     1.0  0.56921  0.71394  0.97850  1.0000
  H   H1467     1.0  0.61202  0.65378  0.90806  1.0000
  H   H1468     1.0  0.54136  0.67653  0.86920  1.0000
  C   C823      1.0  0.43054  0.77654  0.88067  1.0000
  C   C824      1.0  0.39056  0.91228  0.54343  1.0000
  C   C825      1.0  0.47043  0.71874  0.95849  1.0000
  H   H1469     1.0  0.46179  0.81721  0.86793  1.0000
  C   C826      1.0  0.39171  0.82617  0.96572  1.0000
  C   C827      1.0  0.46519  0.75859  0.50184  1.0000
  C   C828      1.0  0.57275  0.68369  0.92248  1.0000
  H   H1470     1.0  0.54180  0.49375  0.71574  1.0000
  H   H1471     1.0  0.36827  0.95280  0.65205  1.0000
  H   H1472     1.0  0.55473  0.52130  0.98250  1.0000
  H   H1473     1.0  0.46818  0.75176  0.93028  1.0000
  C   C829      1.0  0.49756  0.50034  0.89896  1.0000
  H   H1474     1.0  0.39667  0.49649  0.58994  1.0000
  C   C830      1.0  0.47292  0.75916  0.98325  1.0000
  H   H1475     1.0  0.50306  0.49512  0.97899  1.0000
  C   C831      1.0  0.35276  0.94075  0.65078  1.0000
  H   H1476     1.0  0.49683  0.96436  0.67715  1.0000
  C   C832      1.0  0.54959  0.49746  0.92250  1.0000
  H   H1477     1.0  0.49497  0.96045  0.90855  1.0000
  C   C833      1.0  0.52259  0.54287  0.98711  1.0000
  H   H1478     1.0  0.38643  0.66355  0.53566  1.0000
  H   H1479     1.0  0.54367  0.48172  0.90786  1.0000
  H   H1480     1.0  0.48755  0.48679  0.91310  1.0000
  C   C834      1.0  0.61694  0.97488  0.57234  1.0000
  H   H1481     1.0  0.37117  0.91547  0.53840  1.0000
  C   C835      1.0  0.50420  0.73937  0.50604  1.0000
  C   C836      1.0  0.55158  0.96758  0.50995  1.0000
  Fe  Fe98      1.0  0.62520  0.96961  0.67255  1.0000
  H   H1482     1.0  0.55585  0.76362  0.98303  1.0000
  C   C837      1.0  0.39602  0.49168  0.56282  1.0000
  H   H1483     1.0  0.51223  0.96318  0.79608  1.0000
  C   C838      1.0  0.59420  0.67666  0.94556  1.0000
  C   C839      1.0  0.53504  0.73223  0.97018  1.0000
  H   H1484     1.0  0.38329  0.96126  0.87615  1.0000
  H   H1485     1.0  0.46638  0.48465  0.65770  1.0000
  C   C840      1.0  0.54011  0.67567  0.96303  1.0000
  H   H1486     1.0  0.57027  0.47915  0.96287  1.0000
  H   H1487     1.0  0.53384  0.96876  0.49721  1.0000
  H   H1488     1.0  0.51054  0.49134  0.88178  1.0000
  C   C841      1.0  0.47109  0.49375  0.60474  1.0000
  H   H1489     1.0  0.33366  0.72322  0.51241  1.0000
  H   H1490     1.0  0.40317  0.96356  0.98912  1.0000
  C   C842      1.0  0.42214  0.95998  0.98190  1.0000
  H   H1491     1.0  0.52198  0.72081  0.98289  1.0000
  C   C843      1.0  0.54278  0.75166  0.99494  1.0000
  H   H1492     1.0  0.36880  0.47798  0.52860  1.0000
  H   H1493     1.0  0.52028  0.67792  0.96418  1.0000
  H   H1494     1.0  0.63110  0.66384  0.94176  1.0000
  H   H1495     1.0  0.34813  0.64055  0.51863  1.0000
  H   H1496     1.0  0.52298  0.74012  0.51261  1.0000
  H   H1497     1.0  0.49089  0.50423  0.64948  1.0000
  H   H1498     1.0  0.53241  0.48830  0.99271  1.0000
  H   H1499     1.0  0.58614  0.94988  0.49634  1.0000
  H   H1500     1.0  0.48362  0.47833  0.60036  1.0000
  C   C844      1.0  0.44186  0.49965  0.49773  1.0000
  S   S198      1.0  0.49862  0.85337  0.99547  1.0000
  C   C845      1.0  0.32364  0.97488  0.66509  1.0000
  H   H1501     1.0  0.50116  0.97437  0.83590  1.0000
  C   C846      1.0  0.35304  0.60498  0.49816  1.0000
  H   H1502     1.0  0.67420  0.04785  0.38922  1.0000
  H   H1503     1.0  0.93643  0.97863  0.27492  1.0000
  H   H1504     1.0  0.93187  0.43950  0.45482  1.0000
  Fe  Fe99      1.0  0.86341  0.02922  0.31553  1.0000
  S   S199      1.0  0.68585  0.97625  0.20984  1.0000
  S   S200      1.0  0.86583  0.05753  0.35645  1.0000
  Fe  Fe100     1.0  0.87920  0.01275  0.24565  1.0000
  S   S201      1.0  0.90405  0.01574  0.20072  1.0000
  S   S202      1.0  0.85125  0.03920  0.26336  1.0000
  H   H1505     1.0  0.66534  0.09573  0.27546  1.0000
  S   S203      1.0  0.93711  0.13263  0.02294  1.0000
  H   H1506     1.0  0.86613  0.44323  0.37978  1.0000
  Fe  Fe101     1.0  0.94554  0.11380  0.07208  1.0000
  S   S204      1.0  0.91792  0.10969  0.11355  1.0000
  S   S205      1.0  0.78724  0.45438  0.21122  1.0000
  H   H1507     1.0  0.64359  0.00990  0.29103  1.0000
  H   H1508     1.0  0.95289  0.05205  0.29406  1.0000
  Fe  Fe102     1.0  0.86828  0.43780  0.16247  1.0000
  C   C847      1.0  0.76402  0.03384  0.13145  1.0000
  S   S206      1.0  0.87246  0.40980  0.12136  1.0000
  Fe  Fe103     1.0  0.87950  0.45257  0.23434  1.0000
  S   S207      1.0  0.90559  0.44697  0.27783  1.0000
  S   S208      1.0  0.85278  0.42740  0.21231  1.0000
  C   C848      1.0  0.90153  0.15975  0.46354  1.0000
  Fe  Fe104     1.0  0.94577  0.34863  0.40202  1.0000
  S   S209      1.0  0.91612  0.35140  0.36288  1.0000
  Fe  Fe105     1.0  0.96068  0.35706  0.47503  1.0000
  S   S210      1.0  0.96956  0.19636  0.03342  1.0000
  S   S211      1.0  0.94357  0.32590  0.44888  1.0000
  H   H1509     1.0  0.93116  0.03692  0.26809  1.0000
  S   S212      1.0  0.85383  0.98208  0.24564  1.0000
  H   H1510     1.0  0.90508  0.30041  0.49350  1.0000
  C   C849      1.0  0.95230  0.22809  0.49542  1.0000
  C   C850      1.0  0.89342  0.99956  0.46030  1.0000
  H   H1511     1.0  0.90077  0.14062  0.45580  1.0000
  H   H1512     1.0  0.96705  0.41732  0.20290  1.0000
  H   H1513     1.0  0.97037  0.01467  0.14870  1.0000
  Fe  Fe106     1.0  0.64832  0.46835  0.28091  1.0000
  C   C851      1.0  0.94039  0.16516  0.43127  1.0000
  C   C852      1.0  0.90918  0.41942  0.29897  1.0000
  C   C853      1.0  0.92710  0.41724  0.32371  1.0000
  C   C854      1.0  0.93017  0.39598  0.34214  1.0000
  C   C855      1.0  0.91470  0.37701  0.33691  1.0000
  C   C856      1.0  0.89688  0.37904  0.31187  1.0000
  C   C857      1.0  0.89429  0.40010  0.29263  1.0000
  H   H1514     1.0  0.93840  0.43225  0.32903  1.0000
  H   H1515     1.0  0.94393  0.39465  0.36132  1.0000
  H   H1516     1.0  0.88477  0.36445  0.30778  1.0000
  H   H1517     1.0  0.88032  0.40167  0.27371  1.0000
  C   C858      1.0  0.94176  0.39551  0.06268  1.0000
  C   C859      1.0  0.94202  0.40950  0.09218  1.0000
  C   C860      1.0  0.92069  0.41520  0.10939  1.0000
  C   C861      1.0  0.89904  0.40602  0.09795  1.0000
  C   C862      1.0  0.89876  0.39194  0.06853  1.0000
  C   C863      1.0  0.91999  0.38698  0.05065  1.0000
  H   H1518     1.0  0.95883  0.41566  0.10195  1.0000
  H   H1519     1.0  0.92110  0.42597  0.13205  1.0000
  H   H1520     1.0  0.88208  0.38469  0.05962  1.0000
  H   H1521     1.0  0.91958  0.37608  0.02804  1.0000
  C   C864      1.0  0.89367  0.06513  0.37402  1.0000
  C   C865      1.0  0.91511  0.05451  0.36279  1.0000
  C   C866      1.0  0.93689  0.06045  0.37824  1.0000
  C   C867      1.0  0.93725  0.07641  0.40569  1.0000
  C   C868      1.0  0.91586  0.08722  0.41670  1.0000
  C   C869      1.0  0.89421  0.08192  0.40041  1.0000
  H   H1522     1.0  0.91488  0.04174  0.34228  1.0000
  H   H1523     1.0  0.95344  0.05223  0.36941  1.0000
  H   H1524     1.0  0.93534  0.04319  0.47592  1.0000
  H   H1525     1.0  0.87768  0.09054  0.40853  1.0000
  C   C870      1.0  0.90807  0.04221  0.17731  1.0000
  C   C871      1.0  0.92005  0.04062  0.14633  1.0000
  C   C872      1.0  0.92381  0.06124  0.12697  1.0000
  C   C873      1.0  0.91530  0.08362  0.13826  1.0000
  C   C874      1.0  0.90333  0.08522  0.16928  1.0000
  C   C875      1.0  0.89990  0.06463  0.18890  1.0000
  H   H1526     1.0  0.92620  0.02330  0.13703  1.0000
  H   H1527     1.0  0.93282  0.05977  0.10297  1.0000
  H   H1528     1.0  0.89664  0.10248  0.17811  1.0000
  H   H1529     1.0  0.89085  0.06613  0.21287  1.0000
  H   H1530     1.0  0.70058  0.44645  0.23062  1.0000
  H   H1531     1.0  0.90767  0.40458  0.39971  1.0000
  N   N49       1.0  0.87047  0.41198  0.41189  1.0000
  C   C876      1.0  0.86674  0.38532  0.40909  1.0000
  C   C877      1.0  0.86374  0.42351  0.37866  1.0000
  C   C878      1.0  0.65898  0.05263  0.37219  1.0000
  H   H1532     1.0  0.68514  0.06214  0.31086  1.0000
  C   C879      1.0  0.87793  0.36992  0.43785  1.0000
  C   C880      1.0  0.83775  0.42042  0.36597  1.0000
  N   N50       1.0  0.67140  0.02670  0.32035  1.0000
  C   C881      1.0  0.71645  0.45587  0.23816  1.0000
  C   C882      1.0  0.86906  0.34425  0.43667  1.0000
  H   H1533     1.0  0.87444  0.37830  0.38507  1.0000
  H   H1534     1.0  0.84747  0.38120  0.40731  1.0000
  H   H1535     1.0  0.87604  0.41665  0.35858  1.0000
  H   H1536     1.0  0.90752  0.39134  0.17691  1.0000
  H   H1537     1.0  0.73649  0.99079  0.34365  1.0000
  H   H1538     1.0  0.81565  0.42868  0.32202  1.0000
  H   H1539     1.0  0.83501  0.08467  0.23445  1.0000
  H   H1540     1.0  0.89773  0.36888  0.43529  1.0000
  H   H1541     1.0  0.87360  0.37775  0.46285  1.0000
  H   H1542     1.0  0.83273  0.40134  0.36493  1.0000
  H   H1543     1.0  0.84941  0.34400  0.44058  1.0000
  H   H1544     1.0  0.80756  0.03065  0.10525  1.0000
  C   C883      1.0  0.93627  0.32613  0.27737  1.0000
  H   H1545     1.0  0.92443  0.03391  0.43640  1.0000
  H   H1546     1.0  0.71949  0.02992  0.29397  1.0000
  C   C884      1.0  0.85686  0.42365  0.44076  1.0000
  H   H1547     1.0  0.90537  0.44746  0.38771  1.0000
  H   H1548     1.0  0.91094  0.16120  0.48818  1.0000
  Fe  Fe107     1.0  0.96600  0.09760  0.47862  1.0000
  H   H1549     1.0  0.89353  0.45441  0.42901  1.0000
  H   H1550     1.0  0.94637  0.46954  0.22791  1.0000
  H   H1551     1.0  0.85332  0.44300  0.43540  1.0000
  H   H1552     1.0  0.86770  0.06827  0.03744  1.0000
  H   H1553     1.0  0.87798  0.33358  0.45690  1.0000
  C   C885      1.0  0.96903  0.01608  0.44063  1.0000
  H   H1554     1.0  0.80306  0.06149  0.11399  1.0000
  H   H1555     1.0  0.88292  0.16682  0.46671  1.0000
  H   H1556     1.0  0.70211  0.03602  0.35066  1.0000
  H   H1557     1.0  0.90696  0.32315  0.22457  1.0000
  H   H1558     1.0  0.78357  0.05438  0.16749  1.0000
  C   C886      1.0  0.66251  0.00630  0.29880  1.0000
  H   H1559     1.0  0.69423  0.00566  0.35393  1.0000
  H   H1560     1.0  0.96413  0.45508  0.07342  1.0000
  H   H1561     1.0  0.97106  0.06366  0.24027  1.0000
  C   C887      1.0  0.73897  0.00706  0.32818  1.0000
  Fe  Fe108     1.0  0.64974  0.99441  0.19592  1.0000
  H   H1562     1.0  0.93597  0.24270  0.36256  1.0000
  H   H1563     1.0  0.67250  0.00497  0.27461  1.0000
  C   C888      1.0  0.89692  0.41570  0.41762  1.0000
  H   H1564     1.0  0.96772  0.09452  0.13617  1.0000
  C   C889      1.0  0.91426  0.17438  0.43699  1.0000
  H   H1565     1.0  0.95599  0.37558  0.20867  1.0000
  C   C890      1.0  0.97129  0.22157  0.00561  1.0000
  H   H1566     1.0  0.96115  0.20678  0.34784  1.0000
  Fe  Fe109     1.0  0.82612  0.00816  0.26658  1.0000
  H   H1567     1.0  0.70436  0.02537  0.20863  1.0000
  H   H1568     1.0  0.94029  0.36077  0.25560  1.0000
  C   C891      1.0  0.94786  0.41307  0.20555  1.0000
  S   S213      1.0  0.78892  0.01942  0.24497  1.0000
  H   H1569     1.0  0.86598  0.03871  0.08261  1.0000
  C   C892      1.0  0.69556  0.02060  0.33560  1.0000
  S   S214      1.0  0.95889  0.38069  0.42986  1.0000
  H   H1570     1.0  0.91416  0.13914  0.38443  1.0000
  C   C893      1.0  0.76038  0.00688  0.23582  1.0000
  C   C894      1.0  0.74145  0.02222  0.22492  1.0000
  H   H1571     1.0  0.81225  0.10548  0.21980  1.0000
  H   H1572     1.0  0.64159  0.07400  0.41131  1.0000
  N   N51       1.0  0.91165  0.35424  0.19327  1.0000
  H   H1573     1.0  0.66370  0.06899  0.35829  1.0000
  C   C895      1.0  0.91260  0.34212  0.22723  1.0000
  H   H1574     1.0  0.80972  0.08540  0.16536  1.0000
  H   H1575     1.0  0.93016  0.20690  0.39701  1.0000
  H   H1576     1.0  0.93643  0.46332  0.42528  1.0000
  C   C896      1.0  0.97445  0.97927  0.16910  1.0000
  H   H1577     1.0  0.86311  0.34780  0.22330  1.0000
  H   H1578     1.0  0.97024  0.05409  0.16237  1.0000
  H   H1579     1.0  0.94469  0.34361  0.08441  1.0000
  C   C897      1.0  0.86597  0.36100  0.20294  1.0000
  C   C898      1.0  0.84873  0.97709  0.15828  1.0000
  H   H1580     1.0  0.94341  0.12593  0.38093  1.0000
  H   H1581     1.0  0.73981  0.43587  0.20442  1.0000
  H   H1582     1.0  0.75870  0.04941  0.11549  1.0000
  H   H1583     1.0  0.94074  0.12800  0.31838  1.0000
  C   C899      1.0  0.83322  0.00006  0.15934  1.0000
  H   H1584     1.0  0.93492  0.30705  0.26966  1.0000
  H   H1585     1.0  0.96359  0.00936  0.24657  1.0000
  C   C900      1.0  0.90538  0.44190  0.41457  1.0000
  H   H1586     1.0  0.94980  0.38607  0.16705  1.0000
  C   C901      1.0  0.75981  0.46188  0.23256  1.0000
  C   C902      1.0  0.96007  0.24860  0.47807  1.0000
  H   H1587     1.0  0.88280  0.33302  0.17288  1.0000
  H   H1588     1.0  0.87025  0.37843  0.21465  1.0000
  H   H1589     1.0  0.94063  0.14529  0.43202  1.0000
  H   H1590     1.0  0.88087  0.07988  0.07551  1.0000
  H   H1591     1.0  0.74516  0.02191  0.34456  1.0000
  Fe  Fe110     1.0  0.96291  0.10522  0.00078  1.0000
  H   H1592     1.0  0.90973  0.34030  0.12046  1.0000
  C   C903      1.0  0.84227  0.36396  0.18377  1.0000
  H   H1593     1.0  0.81585  0.99572  0.14738  1.0000
  H   H1594     1.0  0.83031  0.00490  0.18612  1.0000
  H   H1595     1.0  0.74455  0.04118  0.22238  1.0000
  C   C904      1.0  0.97046  0.04563  0.22820  1.0000
  H   H1596     1.0  0.80474  0.07472  0.22721  1.0000
  H   H1597     1.0  0.96880  0.46672  0.33216  1.0000
  S   S215      1.0  0.89359  0.00522  0.29772  1.0000
  C   C905      1.0  0.92602  0.34810  0.13189  1.0000
  C   C906      1.0  0.93681  0.34231  0.24643  1.0000
  H   H1598     1.0  0.87350  0.33575  0.41202  1.0000
  H   H1599     1.0  0.83717  0.34673  0.17189  1.0000
  H   H1600     1.0  0.96234  0.44765  0.27947  1.0000
  N   N52       1.0  0.83299  0.04483  0.14107  1.0000
  C   C907      1.0  0.83317  0.05391  0.17697  1.0000
  C   C908      1.0  0.84521  0.02039  0.13983  1.0000
  C   C909      1.0  0.84790  0.06159  0.12047  1.0000
  C   C910      1.0  0.80803  0.04408  0.12610  1.0000
  H   H1601     1.0  0.94173  0.99102  0.45083  1.0000
  C   C911      1.0  0.82538  0.08066  0.18152  1.0000
  C   C912      1.0  0.85285  0.05398  0.08344  1.0000
  H   H1602     1.0  0.94724  0.34248  0.17714  1.0000
  C   C913      1.0  0.83277  0.41249  0.45088  1.0000
  H   H1603     1.0  0.80303  0.41924  0.48488  1.0000
  H   H1604     1.0  0.92498  0.32119  0.17056  1.0000
  C   C914      1.0  0.97067  0.24492  0.01942  1.0000
  H   H1605     1.0  0.85147  0.05179  0.18801  1.0000
  H   H1606     1.0  0.82188  0.04292  0.19342  1.0000
  H   H1607     1.0  0.93281  0.42967  0.00668  1.0000
  Fe  Fe111     1.0  0.86659  0.97630  0.29916  1.0000
  H   H1608     1.0  0.86564  0.06410  0.13279  1.0000
  H   H1609     1.0  0.83921  0.07974  0.11937  1.0000
  C   C915      1.0  0.97191  0.00637  0.17403  1.0000
  C   C916      1.0  0.92446  0.12967  0.33421  1.0000
  H   H1610     1.0  0.95192  0.33586  0.23062  1.0000
  H   H1611     1.0  0.95296  0.32816  0.29239  1.0000
  H   H1612     1.0  0.84031  0.09238  0.17433  1.0000
  H   H1613     1.0  0.97240  0.28315  0.01007  1.0000
  H   H1614     1.0  0.66371  0.07496  0.24042  1.0000
  Fe  Fe112     1.0  0.82799  0.45978  0.20654  1.0000
  H   H1615     1.0  0.95506  0.01000  0.18778  1.0000
  S   S216      1.0  0.96905  0.38829  0.04241  1.0000
  H   H1616     1.0  0.88442  0.36224  0.15549  1.0000
  H   H1617     1.0  0.74790  0.46847  0.15137  1.0000
  C   C917      1.0  0.71857  0.01329  0.21714  1.0000
  H   H1618     1.0  0.91660  0.11163  0.33639  1.0000
  H   H1619     1.0  0.95813  0.02797  0.01304  1.0000
  H   H1620     1.0  0.92448  0.36777  0.12932  1.0000
  H   H1621     1.0  0.94833  0.26418  0.47561  1.0000
  H   H1622     1.0  0.87605  0.99531  0.47230  1.0000
  C   C918      1.0  0.67373  0.04856  0.29842  1.0000
  H   H1623     1.0  0.95436  0.16499  0.34696  1.0000
  H   H1624     1.0  0.94666  0.46913  0.02949  1.0000
  C   C919      1.0  0.97286  0.26543  0.99887  1.0000
  H   H1625     1.0  0.91604  0.09975  0.43754  1.0000
  C   C920      1.0  0.88697  0.04159  0.47551  1.0000
  H   H1626     1.0  0.89971  0.35088  0.24493  1.0000
  C   C921      1.0  0.88882  0.00268  0.42187  1.0000
  C   C922      1.0  0.81895  0.08662  0.21802  1.0000
  S   S217      1.0  0.84216  0.46850  0.15493  1.0000
  C   C923      1.0  0.64398  0.44100  0.07851  1.0000
  C   C924      1.0  0.92770  0.02755  0.46253  1.0000
  C   C925      1.0  0.75599  0.98239  0.23889  1.0000
  H   H1627     1.0  0.83900  0.44977  0.32970  1.0000
  H   H1628     1.0  0.90245  0.40929  0.44312  1.0000
  H   H1629     1.0  0.86792  0.42355  0.46425  1.0000
  H   H1630     1.0  0.95091  0.17031  0.45392  1.0000
  C   C926      1.0  0.88647  0.35205  0.17948  1.0000
  S   S218      1.0  0.83674  0.99987  0.32048  1.0000
  H   H1631     1.0  0.65267  0.01538  0.36499  1.0000
  C   C927      1.0  0.96337  0.21509  0.37309  1.0000
  H   H1632     1.0  0.95491  0.00504  0.48766  1.0000
  H   H1633     1.0  0.95672  0.25028  0.39596  1.0000
  C   C928      1.0  0.71570  0.01425  0.31003  1.0000
  C   C929      1.0  0.92826  0.34081  0.16949  1.0000
  H   H1634     1.0  0.85129  0.09011  0.06238  1.0000
  C   C930      1.0  0.71427  0.98875  0.21985  1.0000
  S   S219      1.0  0.89686  0.46057  0.18487  1.0000
  H   H1635     1.0  0.95489  0.20876  0.42520  1.0000
  N   N53       1.0  0.90446  0.02052  0.47841  1.0000
  H   H1636     1.0  0.64577  0.43793  0.02475  1.0000
  H   H1637     1.0  0.82050  0.41058  0.42914  1.0000
  H   H1638     1.0  0.64874  0.46021  0.07828  1.0000
  H   H1639     1.0  0.92084  0.33104  0.29371  1.0000
  H   H1640     1.0  0.84363  0.37782  0.16394  1.0000
  H   H1641     1.0  0.94273  0.41531  0.23242  1.0000
  C   C931      1.0  0.86381  0.07436  0.06358  1.0000
  H   H1642     1.0  0.90463  0.98299  0.46283  1.0000
  H   H1643     1.0  0.84620  0.42047  0.31228  1.0000
  H   H1644     1.0  0.91110  0.14181  0.32174  1.0000
  C   C932      1.0  0.91721  0.38058  0.19656  1.0000
  H   H1645     1.0  0.71079  0.99914  0.29335  1.0000
  H   H1646     1.0  0.97231  0.09037  0.19857  1.0000
  H   H1647     1.0  0.86404  0.02166  0.14903  1.0000
  C   C933      1.0  0.73881  0.44988  0.22334  1.0000
  H   H1648     1.0  0.95325  0.04585  0.21384  1.0000
  C   C934      1.0  0.95494  0.24133  0.37101  1.0000
  C   C935      1.0  0.78718  0.03878  0.15065  1.0000
  C   C936      1.0  0.94793  0.00811  0.46176  1.0000
  C   C937      1.0  0.94393  0.38739  0.19369  1.0000
  H   H1649     1.0  0.83587  0.39442  0.46187  1.0000
  H   H1650     1.0  0.76625  0.01759  0.11539  1.0000
  C   C938      1.0  0.83455  0.43047  0.33036  1.0000
  H   H1651     1.0  0.91021  0.38784  0.22088  1.0000
  H   H1652     1.0  0.74942  0.03066  0.14966  1.0000
  H   H1653     1.0  0.90364  0.17384  0.41330  1.0000
  C   C939      1.0  0.94755  0.33914  0.11142  1.0000
  C   C940      1.0  0.94932  0.20143  0.40024  1.0000
  H   H1654     1.0  0.81560  0.44599  0.46783  1.0000
  H   H1655     1.0  0.88577  0.04801  0.44911  1.0000
  H   H1656     1.0  0.96411  0.34797  0.12009  1.0000
  H   H1657     1.0  0.92600  0.17656  0.35912  1.0000
  C   C941      1.0  0.94112  0.16469  0.36781  1.0000
  C   C942      1.0  0.64992  0.06138  0.28792  1.0000
  C   C943      1.0  0.93079  0.13905  0.36929  1.0000
  Fe  Fe113     1.0  0.96966  0.15481  0.03314  1.0000
  H   H1658     1.0  0.87688  0.01836  0.41644  1.0000
  H   H1659     1.0  0.75316  0.00300  0.30937  1.0000
  C   C944      1.0  0.65435  0.08176  0.26329  1.0000
  H   H1660     1.0  0.94355  0.43278  0.41321  1.0000
  H   H1661     1.0  0.68335  0.04369  0.27473  1.0000
  N   N54       1.0  0.95217  0.17437  0.39989  1.0000
  H   H1662     1.0  0.82790  0.36981  0.20143  1.0000
  H   H1663     1.0  0.79110  0.02322  0.16707  1.0000
  H   H1664     1.0  0.64392  0.39734  0.04525  1.0000
  H   H1665     1.0  0.93715  0.42587  0.18999  1.0000
  H   H1666     1.0  0.96611  0.25097  0.35271  1.0000
  C   C945      1.0  0.81999  0.42779  0.47766  1.0000
  H   H1667     1.0  0.96848  0.24720  0.04631  1.0000
  C   C946      1.0  0.93092  0.44444  0.42781  1.0000
  H   H1668     1.0  0.94990  0.31937  0.11358  1.0000
  H   H1669     1.0  0.83614  0.04869  0.07043  1.0000
  C   C947      1.0  0.65366  0.03123  0.34834  1.0000
  H   H1670     1.0  0.82513  0.43059  0.38245  1.0000
  H   H1671     1.0  0.91430  0.19324  0.44617  1.0000
  H   H1672     1.0  0.90591  0.00486  0.40824  1.0000
  H   H1673     1.0  0.84629  0.01365  0.11350  1.0000
  H   H1674     1.0  0.94683  0.02095  0.30134  1.0000
  H   H1675     1.0  0.66054  0.43005  0.08324  1.0000
  H   H1676     1.0  0.86859  0.03599  0.48226  1.0000
  H   H1677     1.0  0.86653  0.98013  0.16999  1.0000
  C   C948      1.0  0.94858  0.03480  0.28156  1.0000
  H   H1678     1.0  0.97182  0.40489  0.28619  1.0000
  H   H1679     1.0  0.96329  0.01943  0.41419  1.0000
  C   C949      1.0  0.96829  0.02714  0.25698  1.0000
  S   S220      1.0  0.96855  0.08447  0.04892  1.0000
  H   H1680     1.0  0.87198  0.08965  0.46682  1.0000
  H   H1681     1.0  0.96004  0.42376  0.49296  1.0000
  H   H1682     1.0  0.85882  0.97843  0.41841  1.0000
  H   H1683     1.0  0.64488  0.42974  0.42653  1.0000
  H   H1684     1.0  0.97288  0.46229  0.20340  1.0000
  S   S221      1.0  0.96469  0.08225  0.42567  1.0000
  C   C950      1.0  0.95106  0.46372  0.00344  1.0000
  H   H1685     1.0  0.87423  0.98304  0.37939  1.0000
  C   C951      1.0  0.87671  0.98071  0.40699  1.0000
  H   H1686     1.0  0.65542  0.98112  0.34053  1.0000
  C   C952      1.0  0.66376  0.98106  0.31532  1.0000
  H   H1687     1.0  0.97397  0.46154  0.13270  1.0000
  H   H1688     1.0  0.90996  0.07160  0.49041  1.0000
  C   C953      1.0  0.87330  0.08367  0.49335  1.0000
  C   C954      1.0  0.71460  0.47418  0.26235  1.0000
  H   H1689     1.0  0.73968  0.42751  0.61867  1.0000
  C   C955      1.0  0.74936  0.02082  0.73374  1.0000
  H   H1690     1.0  0.86679  0.12384  0.82048  1.0000
  Fe  Fe114     1.0  0.87243  0.01640  0.83726  1.0000
  S   S222      1.0  0.90573  0.01280  0.80681  1.0000
  S   S223      1.0  0.87206  0.03183  0.89042  1.0000
  Fe  Fe115     1.0  0.88321  0.02493  0.76269  1.0000
  S   S224      1.0  0.90006  0.05555  0.73386  1.0000
  S   S225      1.0  0.85020  0.03145  0.79441  1.0000
  H   H1691     1.0  0.91667  0.10759  0.88053  1.0000
  H   H1692     1.0  0.73765  0.04421  0.83453  1.0000
  C   C956      1.0  0.66330  0.41541  0.68327  1.0000
  Fe  Fe116     1.0  0.94920  0.09339  0.55222  1.0000
  S   S226      1.0  0.92472  0.06713  0.57830  1.0000
  C   C957      1.0  0.92766  0.11978  0.86559  1.0000
  Fe  Fe117     1.0  0.82984  0.45512  0.69456  1.0000
  H   H1693     1.0  0.73303  0.02810  0.87342  1.0000
  Fe  Fe118     1.0  0.86241  0.43881  0.63534  1.0000
  S   S227      1.0  0.89610  0.44922  0.66212  1.0000
  S   S228      1.0  0.86103  0.42187  0.58293  1.0000
  Fe  Fe119     1.0  0.88037  0.43300  0.70832  1.0000
  S   S229      1.0  0.90481  0.40667  0.73678  1.0000
  S   S230      1.0  0.84817  0.41999  0.68031  1.0000
  H   H1694     1.0  0.89060  0.15650  0.78672  1.0000
  Fe  Fe120     1.0  0.94381  0.37200  0.92025  1.0000
  S   S231      1.0  0.91181  0.39087  0.89514  1.0000
  H   H1695     1.0  0.73772  0.40011  0.64280  1.0000
  S   S232      1.0  0.95566  0.37015  0.52856  1.0000
  S   S233      1.0  0.94275  0.34716  0.96509  1.0000
  H   H1696     1.0  0.95025  0.46893  0.49742  1.0000
  H   H1697     1.0  0.93185  0.34039  0.58543  1.0000
  C   C958      1.0  0.68321  0.01852  0.85585  1.0000
  H   H1698     1.0  0.93808  0.00075  0.87207  1.0000
  C   C959      1.0  0.76332  0.45760  0.72968  1.0000
  C   C960      1.0  0.74477  0.44126  0.73447  1.0000
  C   C961      1.0  0.72232  0.44874  0.74781  1.0000
  C   C962      1.0  0.82993  0.45570  0.80551  1.0000
  H   H1699     1.0  0.74779  0.42263  0.72770  1.0000
  H   H1700     1.0  0.70838  0.43590  0.75128  1.0000
  C   C963      1.0  0.90684  0.40311  0.78095  1.0000
  C   C964      1.0  0.92104  0.38413  0.79389  1.0000
  C   C965      1.0  0.92309  0.38048  0.82885  1.0000
  C   C966      1.0  0.91081  0.39573  0.85119  1.0000
  C   C967      1.0  0.89680  0.41489  0.83829  1.0000
  C   C968      1.0  0.89501  0.41874  0.80329  1.0000
  H   H1701     1.0  0.93028  0.37198  0.77676  1.0000
  H   H1702     1.0  0.93371  0.36553  0.83852  1.0000
  H   H1703     1.0  0.88752  0.42692  0.85550  1.0000
  H   H1704     1.0  0.88450  0.43371  0.79356  1.0000
  C   C969      1.0  0.92944  0.38523  0.54238  1.0000
  C   C970      1.0  0.92879  0.39426  0.57538  1.0000
  C   C971      1.0  0.90788  0.40535  0.58803  1.0000
  C   C972      1.0  0.88749  0.40780  0.56762  1.0000
  C   C973      1.0  0.88822  0.39901  0.53438  1.0000
  C   C974      1.0  0.90919  0.38776  0.52174  1.0000
  H   H1705     1.0  0.94444  0.39241  0.59142  1.0000
  H   H1706     1.0  0.90747  0.41175  0.61374  1.0000
  H   H1707     1.0  0.69057  0.00547  0.87461  1.0000
  C   C975      1.0  0.73703  0.42001  0.64421  1.0000
  C   C976      1.0  0.89717  0.04642  0.90747  1.0000
  C   C977      1.0  0.91846  0.04777  0.88941  1.0000
  C   C978      1.0  0.93789  0.06022  0.90284  1.0000
  C   C979      1.0  0.93628  0.07140  0.93447  1.0000
  C   C980      1.0  0.91516  0.06978  0.95294  1.0000
  C   C981      1.0  0.89565  0.05729  0.93942  1.0000
  H   H1708     1.0  0.91981  0.03966  0.86478  1.0000
  H   H1709     1.0  0.95425  0.06137  0.88861  1.0000
  H   H1710     1.0  0.91376  0.07836  0.97738  1.0000
  H   H1711     1.0  0.87922  0.05635  0.95358  1.0000
  C   C982      1.0  0.90604  0.05861  0.69033  1.0000
  C   C983      1.0  0.91917  0.07835  0.67973  1.0000
  C   C984      1.0  0.92525  0.08117  0.64559  1.0000
  C   C985      1.0  0.91786  0.06443  0.62163  1.0000
  C   C986      1.0  0.90435  0.04491  0.63215  1.0000
  C   C987      1.0  0.89846  0.04198  0.66634  1.0000
  H   H1712     1.0  0.92473  0.09151  0.69808  1.0000
  H   H1713     1.0  0.93542  0.09639  0.63774  1.0000
  H   H1714     1.0  0.89832  0.03201  0.61374  1.0000
  H   H1715     1.0  0.88805  0.02690  0.67411  1.0000
  H   H1716     1.0  0.93466  0.44160  0.96450  1.0000
  C   C988      1.0  0.77200  0.01297  0.74622  1.0000
  N   N55       1.0  0.81269  0.41533  0.82588  1.0000
  H   H1717     1.0  0.76115  0.42793  0.81336  1.0000
  C   C989      1.0  0.78926  0.40301  0.83228  1.0000
  C   C990      1.0  0.82544  0.41844  0.85931  1.0000
  C   C991      1.0  0.82878  0.40013  0.80356  1.0000
  C   C992      1.0  0.82006  0.39587  0.76710  1.0000
  H   H1718     1.0  0.74649  0.03952  0.72744  1.0000
  C   C993      1.0  0.83017  0.39526  0.88016  1.0000
  C   C994      1.0  0.76782  0.40931  0.80837  1.0000
  C   C995      1.0  0.74691  0.39267  0.81389  1.0000
  C   C996      1.0  0.83829  0.38045  0.74760  1.0000
  C   C997      1.0  0.91452  0.12895  0.83326  1.0000
  C   C998      1.0  0.84163  0.40112  0.91422  1.0000
  H   H1719     1.0  0.68392  0.07167  0.75239  1.0000
  S   S234      1.0  0.93749  0.11674  0.50848  1.0000
  H   H1720     1.0  0.79208  0.38316  0.83216  1.0000
  H   H1721     1.0  0.78247  0.40755  0.85795  1.0000
  C   C999      1.0  0.89902  0.30735  0.51839  1.0000
  H   H1722     1.0  0.84340  0.42607  0.85560  1.0000
  H   H1723     1.0  0.84694  0.40775  0.80240  1.0000
  H   H1724     1.0  0.83154  0.38198  0.81450  1.0000
  H   H1725     1.0  0.81759  0.41301  0.75346  1.0000
  H   H1726     1.0  0.80315  0.38595  0.76697  1.0000
  H   H1727     1.0  0.93983  0.01318  0.66956  1.0000
  H   H1728     1.0  0.89311  0.05947  0.52449  1.0000
  H   H1729     1.0  0.84286  0.38288  0.86693  1.0000
  H   H1730     1.0  0.81342  0.38564  0.88504  1.0000
  C   C1000     1.0  0.96708  0.20733  0.49859  1.0000
  H   H1731     1.0  0.77274  0.40820  0.78146  1.0000
  H   H1732     1.0  0.73174  0.39814  0.79715  1.0000
  H   H1733     1.0  0.75226  0.37384  0.80776  1.0000
  H   H1734     1.0  0.65581  0.46118  0.70565  1.0000
  H   H1735     1.0  0.84129  0.36281  0.75996  1.0000
  H   H1736     1.0  0.83155  0.37728  0.72161  1.0000
  H   H1737     1.0  0.85561  0.38968  0.74600  1.0000
  H   H1738     1.0  0.95873  0.26040  0.54919  1.0000
  H   H1739     1.0  0.65625  0.04446  0.80674  1.0000
  C   C1001     1.0  0.66844  0.46659  0.68578  1.0000
  H   H1740     1.0  0.84529  0.38428  0.92838  1.0000
  H   H1741     1.0  0.85896  0.41012  0.91063  1.0000
  H   H1742     1.0  0.82953  0.41288  0.92947  1.0000
  H   H1743     1.0  0.66504  0.42561  0.57598  1.0000
  H   H1744     1.0  0.93465  0.22832  0.50647  1.0000
  H   H1745     1.0  0.88002  0.30255  0.52182  1.0000
  C   C1002     1.0  0.96630  0.02166  0.98902  1.0000
  H   H1746     1.0  0.68104  0.07541  0.68222  1.0000
  H   H1747     1.0  0.93247  0.29969  0.61275  1.0000
  C   C1003     1.0  0.73461  0.98065  0.73758  1.0000
  H   H1748     1.0  0.64575  0.39570  0.98773  1.0000
  C   C1004     1.0  0.69532  0.03807  0.80165  1.0000
  H   H1749     1.0  0.97270  0.06300  0.78829  1.0000
  H   H1750     1.0  0.81525  0.43149  0.87546  1.0000
  C   C1005     1.0  0.95879  0.43798  0.71550  1.0000
  H   H1751     1.0  0.94764  0.26067  0.62512  1.0000
  H   H1752     1.0  0.92908  0.98087  0.50956  1.0000
  H   H1753     1.0  0.67161  0.06150  0.91881  1.0000
  H   H1754     1.0  0.65353  0.03656  0.90677  1.0000
  H   H1755     1.0  0.90847  0.99406  0.57909  1.0000
  H   H1756     1.0  0.96153  0.04592  0.68607  1.0000
  H   H1757     1.0  0.89583  0.45602  0.59207  1.0000
  H   H1758     1.0  0.96528  0.01247  0.82673  1.0000
  C   C1006     1.0  0.97410  0.21910  0.97069  1.0000
  H   H1759     1.0  0.72368  0.99165  0.84381  1.0000
  H   H1760     1.0  0.67727  0.38665  0.73768  1.0000
  H   H1761     1.0  0.66538  0.03286  0.76644  1.0000
  C   C1007     1.0  0.66705  0.38777  0.68446  1.0000
  S   S235      1.0  0.87373  0.98724  0.74807  1.0000
  C   C1008     1.0  0.94108  0.08599  0.79384  1.0000
  C   C1009     1.0  0.90253  0.11934  0.77499  1.0000
  C   C1010     1.0  0.95310  0.45056  0.88182  1.0000
  Fe  Fe121     1.0  0.96686  0.14180  0.52459  1.0000
  H   H1762     1.0  0.87981  0.16788  0.72801  1.0000
  H   H1763     1.0  0.87766  0.11005  0.87601  1.0000
  H   H1764     1.0  0.84158  0.07606  0.84362  1.0000
  H   H1765     1.0  0.94985  0.42569  0.82160  1.0000
  H   H1766     1.0  0.86763  0.13798  0.76883  1.0000
  H   H1767     1.0  0.94646  0.15302  0.87516  1.0000
  C   C1011     1.0  0.94955  0.30722  0.60419  1.0000
  H   H1768     1.0  0.79549  0.45035  0.82835  1.0000
  C   C1012     1.0  0.93204  0.44633  0.99145  1.0000
  H   H1769     1.0  0.90010  0.32723  0.51873  1.0000
  C   C1013     1.0  0.77614  0.98887  0.75462  1.0000
  H   H1770     1.0  0.70767  0.03607  0.77985  1.0000
  H   H1771     1.0  0.83508  0.10637  0.85826  1.0000
  H   H1772     1.0  0.83955  0.45956  0.82935  1.0000
  H   H1773     1.0  0.87796  0.09933  0.50927  1.0000
  C   C1014     1.0  0.69195  0.42201  0.63602  1.0000
  H   H1774     1.0  0.71417  0.44874  0.66094  1.0000
  H   H1775     1.0  0.94185  0.32219  0.53697  1.0000
  C   C1015     1.0  0.89175  0.15204  0.73285  1.0000
  H   H1776     1.0  0.92805  0.45362  0.55171  1.0000
  H   H1777     1.0  0.93359  0.22029  0.61344  1.0000
  H   H1778     1.0  0.68527  0.38239  0.67592  1.0000
  H   H1779     1.0  0.90935  0.98754  0.69250  1.0000
  C   C1016     1.0  0.94888  0.00558  0.97019  1.0000
  S   S236      1.0  0.79124  0.44695  0.71231  1.0000
  H   H1780     1.0  0.65240  0.07487  0.76112  1.0000
  C   C1017     1.0  0.91468  0.98877  0.52530  1.0000
  H   H1781     1.0  0.94686  0.29377  0.51884  1.0000
  C   C1018     1.0  0.89258  0.06398  0.49740  1.0000
  N   N56       1.0  0.94570  0.97881  0.91575  1.0000
  C   C1019     1.0  0.71320  0.42896  0.65895  1.0000
  C   C1020     1.0  0.93464  0.14056  0.88858  1.0000
  C   C1021     1.0  0.76458  0.01770  0.84639  1.0000
  C   C1022     1.0  0.84694  0.09028  0.86165  1.0000
  Fe  Fe122     1.0  0.96869  0.37218  0.98963  1.0000
  H   H1782     1.0  0.89618  0.10504  0.75755  1.0000
  H   H1783     1.0  0.92170  0.02704  0.52656  1.0000
  H   H1784     1.0  0.93801  0.01710  0.71434  1.0000
  S   S237      1.0  0.65457  0.99039  0.64815  1.0000
  H   H1785     1.0  0.93510  0.44296  0.87786  1.0000
  N   N57       1.0  0.69632  0.01563  0.82277  1.0000
  C   C1023     1.0  0.67019  0.07053  0.77244  1.0000
  H   H1786     1.0  0.78625  0.02558  0.74937  1.0000
  H   H1787     1.0  0.93879  0.08711  0.76607  1.0000
  H   H1788     1.0  0.90529  0.07255  0.79890  1.0000
  C   C1024     1.0  0.66207  0.45390  0.65209  1.0000
  C   C1025     1.0  0.64307  0.42165  0.93199  1.0000
  H   H1789     1.0  0.92404  0.26171  0.59420  1.0000
  H   H1790     1.0  0.86853  0.09450  0.80238  1.0000
  H   H1791     1.0  0.77135  0.01641  0.82017  1.0000
  H   H1792     1.0  0.95847  0.01522  0.92046  1.0000
  H   H1793     1.0  0.87243  0.40070  0.51864  1.0000
  H   H1794     1.0  0.69418  0.40271  0.62924  1.0000
  H   H1795     1.0  0.95306  0.46931  0.87255  1.0000
  C   C1026     1.0  0.97401  0.99443  0.82862  1.0000
  H   H1796     1.0  0.96819  0.04071  0.63252  1.0000
  H   H1797     1.0  0.77577  0.03058  0.86047  1.0000
  S   S238      1.0  0.84230  0.47341  0.64692  1.0000
  N   N58       1.0  0.66716  0.42713  0.64958  1.0000
  H   H1798     1.0  0.91164  0.99786  0.91801  1.0000
  H   H1799     1.0  0.90693  0.30323  0.57083  1.0000
  H   H1800     1.0  0.66401  0.01387  0.85279  1.0000
  C   C1027     1.0  0.95872  0.99817  0.93501  1.0000
  H   H1801     1.0  0.65361  0.37865  0.66855  1.0000
  C   C1028     1.0  0.80787  0.44001  0.81145  1.0000
  C   C1029     1.0  0.67835  0.07907  0.65493  1.0000
  H   H1802     1.0  0.96600  0.40292  0.76545  1.0000
  Fe  Fe123     1.0  0.66430  0.00333  0.70028  1.0000
  C   C1030     1.0  0.87726  0.10665  0.82098  1.0000
  H   H1803     1.0  0.74073  0.39377  0.84042  1.0000
  H   H1804     1.0  0.96271  0.00917  0.62607  1.0000
  H   H1805     1.0  0.65328  0.39732  0.62059  1.0000
  C   C1031     1.0  0.91433  0.29639  0.54670  1.0000
  H   H1806     1.0  0.67514  0.42291  0.70300  1.0000
  C   C1032     1.0  0.68478  0.99586  0.80263  1.0000
  C   C1033     1.0  0.68284  0.04381  0.87250  1.0000
  H   H1807     1.0  0.93375  0.36340  0.63846  1.0000
  C   C1034     1.0  0.92845  0.98231  0.69636  1.0000
  C   C1035     1.0  0.90801  0.01503  0.51549  1.0000
  H   H1808     1.0  0.66713  0.35866  0.72056  1.0000
  H   H1809     1.0  0.67243  0.06241  0.64222  1.0000
  H   H1810     1.0  0.66529  0.99980  0.79913  1.0000
  H   H1811     1.0  0.69453  0.43178  0.61202  1.0000
  H   H1812     1.0  0.94440  0.10979  0.85887  1.0000
  C   C1036     1.0  0.97404  0.98575  0.86509  1.0000
  C   C1037     1.0  0.96135  0.43990  0.75378  1.0000
  H   H1813     1.0  0.90097  0.14284  0.84107  1.0000
  H   H1814     1.0  0.75201  0.42589  0.66061  1.0000
  H   H1815     1.0  0.66715  0.11579  0.66153  1.0000
  C   C1038     1.0  0.65992  0.09946  0.64957  1.0000
  H   H1816     1.0  0.69581  0.08401  0.64406  1.0000
  H   H1817     1.0  0.92095  0.12352  0.76672  1.0000
  H   H1818     1.0  0.89123  0.01913  0.52972  1.0000
  C   C1039     1.0  0.91625  0.08651  0.81123  1.0000
  H   H1819     1.0  0.93896  0.22350  0.56910  1.0000
  S   S239      1.0  0.86201  0.46725  0.72499  1.0000
  H   H1820     1.0  0.93171  0.01589  0.96708  1.0000
  H   H1821     1.0  0.91061  0.15768  0.73079  1.0000
  C   C1040     1.0  0.64793  0.42835  0.58963  1.0000
  H   H1822     1.0  0.95177  0.42023  0.70813  1.0000
  C   C1041     1.0  0.95504  0.06265  0.80089  1.0000
  H   H1823     1.0  0.91844  0.15054  0.89756  1.0000
  H   H1824     1.0  0.94313  0.43920  0.76475  1.0000
  H   H1825     1.0  0.94600  0.45209  0.70632  1.0000
  H   H1826     1.0  0.83135  0.42937  0.50065  1.0000
  H   H1827     1.0  0.64570  0.38243  0.72951  1.0000
  C   C1042     1.0  0.92284  0.98720  0.56209  1.0000
  C   C1043     1.0  0.96743  0.43439  0.82522  1.0000
  H   H1828     1.0  0.93836  0.46669  0.59096  1.0000
  H   H1829     1.0  0.97038  0.03765  0.97374  1.0000
  H   H1830     1.0  0.92817  0.13894  0.81900  1.0000
  Fe  Fe124     1.0  0.84160  0.99303  0.78230  1.0000
  C   C1044     1.0  0.94090  0.30274  0.54249  1.0000
  H   H1831     1.0  0.70215  0.05369  0.81574  1.0000
  H   H1832     1.0  0.84245  0.44669  0.78769  1.0000
  N   N59       1.0  0.90293  0.11040  0.81092  1.0000
  H   H1833     1.0  0.91896  0.33553  0.64470  1.0000
  C   C1045     1.0  0.87315  0.09651  0.85657  1.0000
  C   C1046     1.0  0.73050  0.00476  0.72915  1.0000
  C   C1047     1.0  0.88694  0.14219  0.76799  1.0000
  H   H1834     1.0  0.88390  0.07995  0.86075  1.0000
  H   H1835     1.0  0.84456  0.08336  0.88759  1.0000
  H   H1836     1.0  0.88817  0.13822  0.71328  1.0000
  S   S240      1.0  0.96110  0.08739  0.94930  1.0000
  C   C1048     1.0  0.93642  0.34360  0.63879  1.0000
  H   H1837     1.0  0.96618  0.44219  0.54811  1.0000
  H   H1838     1.0  0.69240  0.99486  0.77684  1.0000
  S   S241      1.0  0.70203  0.01620  0.71452  1.0000
  H   H1839     1.0  0.91242  0.27667  0.54529  1.0000
  H   H1840     1.0  0.71176  0.42113  0.68440  1.0000
  H   H1841     1.0  0.91886  0.07982  0.83716  1.0000
  Fe  Fe125     1.0  0.89414  0.97550  0.79493  1.0000
  H   H1842     1.0  0.67386  0.08396  0.79246  1.0000
  C   C1049     1.0  0.96023  0.26907  0.57439  1.0000
  C   C1050     1.0  0.67030  0.04527  0.78718  1.0000
  H   H1843     1.0  0.64473  0.41957  0.69202  1.0000
  H   H1844     1.0  0.94448  0.13345  0.91096  1.0000
  H   H1845     1.0  0.67162  0.05656  0.85750  1.0000
  H   H1846     1.0  0.89873  0.97740  0.52225  1.0000
  N   N60       1.0  0.95754  0.29609  0.57119  1.0000
  H   H1847     1.0  0.97317  0.02926  0.57344  1.0000
  H   H1848     1.0  0.79846  0.43898  0.78679  1.0000
  C   C1051     1.0  0.94378  0.00453  0.69397  1.0000
  C   C1052     1.0  0.73838  0.02636  0.84664  1.0000
  C   C1053     1.0  0.66411  0.37841  0.72029  1.0000
  C   C1054     1.0  0.96630  0.47316  0.51292  1.0000
  H   H1849     1.0  0.97229  0.38822  0.82263  1.0000
  C   C1055     1.0  0.67214  0.04314  0.90782  1.0000
  C   C1056     1.0  0.94549  0.33485  0.60447  1.0000
  H   H1850     1.0  0.91396  0.45477  0.99433  1.0000
  C   C1057     1.0  0.72224  0.00820  0.82839  1.0000
  H   H1851     1.0  0.97147  0.41697  0.87469  1.0000
  H   H1852     1.0  0.93915  0.99784  0.56623  1.0000
  C   C1058     1.0  0.94297  0.25628  0.59856  1.0000
  S   S242      1.0  0.96702  0.39799  0.94704  1.0000
  H   H1853     1.0  0.68317  0.03134  0.92456  1.0000
  H   H1854     1.0  0.96779  0.09097  0.68559  1.0000
  H   H1855     1.0  0.70091  0.05131  0.87461  1.0000
  S   S243      1.0  0.95662  0.18237  0.52233  1.0000
  H   H1856     1.0  0.76666  0.99983  0.85847  1.0000
  C   C1059     1.0  0.94505  0.22903  0.59459  1.0000
  H   H1857     1.0  0.95697  0.45071  0.90930  1.0000
  H   H1858     1.0  0.85563  0.07717  0.50150  1.0000
  H   H1859     1.0  0.91619  0.97726  0.95116  1.0000
  H   H1860     1.0  0.96453  0.45315  0.81685  1.0000
  H   H1861     1.0  0.66147  0.42240  0.94261  1.0000
  C   C1060     1.0  0.92709  0.46973  0.56822  1.0000
  H   H1862     1.0  0.65840  0.10246  0.62202  1.0000
  C   C1061     1.0  0.64933  0.41670  0.62508  1.0000
  H   H1863     1.0  0.73074  0.00362  0.80374  1.0000
  H   H1864     1.0  0.96284  0.30264  0.62436  1.0000
  H   H1865     1.0  0.95198  0.10126  0.80235  1.0000
  H   H1866     1.0  0.94508  0.04716  0.79084  1.0000
  H   H1867     1.0  0.94959  0.33898  0.65896  1.0000
  Fe  Fe126     1.0  0.65206  0.46898  0.78069  1.0000
  C   C1062     1.0  0.91930  0.97972  0.92388  1.0000
  H   H1868     1.0  0.96830  0.45781  0.75967  1.0000
  C   C1063     1.0  0.94808  0.98387  0.87856  1.0000
  H   H1869     1.0  0.67110  0.46344  0.63132  1.0000
  H   H1870     1.0  0.97461  0.98159  0.68278  1.0000
  S   S244      1.0  0.86169  0.97834  0.82798  1.0000
  S   S245      1.0  0.80419  0.97782  0.77130  1.0000
  H   H1871     1.0  0.96230  0.34430  0.59940  1.0000
  C   C1064     1.0  0.97215  0.43523  0.86379  1.0000
  H   H1872     1.0  0.95809  0.06035  0.82834  1.0000
  H   H1873     1.0  0.96436  0.98176  0.81205  1.0000
  C   C1065     1.0  0.97075  0.99798  0.69816  1.0000
  H   H1874     1.0  0.97443  0.20141  0.95947  1.0000
  H   H1875     1.0  0.68672  0.46203  0.69476  1.0000
  H   H1876     1.0  0.86986  0.98097  0.91318  1.0000
  H   H1877     1.0  0.97348  0.04189  0.72692  1.0000
  H   H1878     1.0  0.97261  0.99223  0.72497  1.0000
  H   H1879     1.0  0.94552  0.98993  0.98633  1.0000
  H   H1880     1.0  0.96383  0.22257  0.59844  1.0000
  H   H1881     1.0  0.64381  0.44787  0.59122  1.0000
  C   C1066     1.0  0.71806  0.47276  0.75692  1.0000
  C   C1067     1.0  0.90123  0.47270  0.57986  1.0000
  H   H1882     1.0  0.64253  0.45788  0.64861  1.0000
  H   H1883     1.0  0.90969  0.38071  0.49638  1.0000
  H   H1884     1.0  0.92998  0.52355  0.49360  1.0000
  H   H1885     1.0  0.74964  0.50159  0.19342  1.0000
  C   C1068     1.0  0.73563  0.48617  0.27159  1.0000
  H   H1886     1.0  0.92116  0.54826  0.21840  1.0000
  H   H1887     1.0  0.73523  0.48932  0.12081  1.0000
  C   C1069     1.0  0.93456  0.56266  0.21814  1.0000
  S   S246      1.0  0.87755  0.93864  0.31659  1.0000
  C   C1070     1.0  0.94936  0.52124  0.48810  1.0000
  H   H1888     1.0  0.73015  0.95444  0.23312  1.0000
  H   H1889     1.0  0.65856  0.96136  0.26839  1.0000
  C   C1071     1.0  0.97210  0.94204  0.49042  1.0000
  H   H1890     1.0  0.96359  0.49306  0.20987  1.0000
  Fe  Fe127     1.0  0.86977  0.49072  0.18146  1.0000
  S   S247      1.0  0.88028  0.52887  0.16873  1.0000
  H   H1891     1.0  0.79739  0.56172  0.22564  1.0000
  H   H1892     1.0  0.83890  0.53395  0.07197  1.0000
  S   S248      1.0  0.96427  0.54994  0.06513  1.0000
  H   H1893     1.0  0.75995  0.59757  0.13459  1.0000
  C   C1072     1.0  0.94159  0.54475  0.09528  1.0000
  C   C1073     1.0  0.93351  0.52125  0.09912  1.0000
  C   C1074     1.0  0.91516  0.51608  0.12196  1.0000
  C   C1075     1.0  0.90414  0.53453  0.14063  1.0000
  C   C1076     1.0  0.91197  0.55812  0.13649  1.0000
  C   C1077     1.0  0.93090  0.56319  0.11440  1.0000
  S   S249      1.0  0.96796  0.91050  0.40897  1.0000
  H   H1894     1.0  0.90914  0.49790  0.12447  1.0000
  H   H1895     1.0  0.90320  0.57260  0.15023  1.0000
  H   H1896     1.0  0.93665  0.58141  0.11132  1.0000
  H   H1897     1.0  0.76282  0.60063  0.17993  1.0000
  H   H1898     1.0  0.95929  0.97284  0.15352  1.0000
  C   C1078     1.0  0.64514  0.92765  0.15106  1.0000
  H   H1899     1.0  0.95179  0.50630  0.46981  1.0000
  C   C1079     1.0  0.94339  0.91761  0.38187  1.0000
  C   C1080     1.0  0.92945  0.90004  0.36673  1.0000
  C   C1081     1.0  0.90950  0.90678  0.34661  1.0000
  C   C1082     1.0  0.90346  0.93108  0.34097  1.0000
  C   C1083     1.0  0.91788  0.94863  0.35527  1.0000
  C   C1084     1.0  0.93756  0.94192  0.37585  1.0000
  H   H1900     1.0  0.93367  0.88128  0.37116  1.0000
  H   H1901     1.0  0.89848  0.89306  0.33562  1.0000
  C   C1085     1.0  0.65079  0.96252  0.29403  1.0000
  H   H1902     1.0  0.94814  0.95569  0.38746  1.0000
  H   H1903     1.0  0.65275  0.94461  0.30594  1.0000
  C   C1086     1.0  0.73729  0.48544  0.14810  1.0000
  H   H1904     1.0  0.85249  0.51987  0.10819  1.0000
  C   C1087     1.0  0.92874  0.65338  0.47296  1.0000
  H   H1905     1.0  0.93510  0.57114  0.24350  1.0000
  H   H1906     1.0  0.81654  0.51784  0.26462  1.0000
  H   H1907     1.0  0.92871  0.57635  0.19944  1.0000
  C   C1088     1.0  0.73316  0.97344  0.23088  1.0000
  H   H1908     1.0  0.78364  0.61500  0.15256  1.0000
  H   H1909     1.0  0.84523  0.55170  0.10891  1.0000
  H   H1910     1.0  0.96495  0.96478  0.31842  1.0000
  H   H1911     1.0  0.78992  0.53560  0.27417  1.0000
  H   H1912     1.0  0.85128  0.97086  0.13189  1.0000
  H   H1913     1.0  0.81901  0.54880  0.27689  1.0000
  H   H1914     1.0  0.94125  0.50694  0.08399  1.0000
  H   H1915     1.0  0.88784  0.96421  0.41127  1.0000
  H   H1916     1.0  0.91357  0.96737  0.35103  1.0000
  H   H1917     1.0  0.97004  0.95194  0.46632  1.0000
  N   N61       1.0  0.78878  0.53025  0.16759  1.0000
  C   C1089     1.0  0.81354  0.52979  0.15246  1.0000
  C   C1090     1.0  0.79091  0.52595  0.20507  1.0000
  C   C1091     1.0  0.77526  0.50942  0.15290  1.0000
  C   C1092     1.0  0.77487  0.55326  0.16025  1.0000
  C   C1093     1.0  0.78940  0.57652  0.15685  1.0000
  C   C1094     1.0  0.81446  0.52842  0.11337  1.0000
  C   C1095     1.0  0.74950  0.50606  0.16634  1.0000
  C   C1096     1.0  0.80610  0.54367  0.22570  1.0000
  C   C1097     1.0  0.80796  0.53594  0.26256  1.0000
  C   C1098     1.0  0.77285  0.59873  0.15593  1.0000
  C   C1099     1.0  0.83929  0.53389  0.09995  1.0000
  C   C1100     1.0  0.65168  0.87757  0.27713  1.0000
  H   H1918     1.0  0.82415  0.51427  0.16232  1.0000
  H   H1919     1.0  0.82398  0.54543  0.16071  1.0000
  H   H1920     1.0  0.77299  0.52661  0.21708  1.0000
  H   H1921     1.0  0.79844  0.50752  0.20975  1.0000
  H   H1922     1.0  0.65889  0.92146  0.13266  1.0000
  H   H1923     1.0  0.77311  0.51138  0.12518  1.0000
  H   H1924     1.0  0.76473  0.55167  0.13609  1.0000
  H   H1925     1.0  0.76092  0.55642  0.17984  1.0000
  H   H1926     1.0  0.79973  0.57614  0.13305  1.0000
  H   H1927     1.0  0.80235  0.57887  0.17769  1.0000
  H   H1928     1.0  0.81029  0.51001  0.10470  1.0000
  H   H1929     1.0  0.80126  0.54112  0.10179  1.0000
  H   H1930     1.0  0.73826  0.52253  0.16275  1.0000
  H   H1931     1.0  0.64606  0.89397  0.17675  1.0000
  H   H1932     1.0  0.82459  0.54465  0.21591  1.0000
  H   H1933     1.0  0.65212  0.89729  0.23124  1.0000
  H   H1934     1.0  0.95522  0.55982  0.48821  1.0000
  H   H1935     1.0  0.97261  0.58066  0.17858  1.0000
  H   H1936     1.0  0.93225  0.94738  0.28352  1.0000
  C   C1101     1.0  0.95718  0.54416  0.47090  1.0000
  H   H1937     1.0  0.77391  0.48942  0.26460  1.0000
  H   H1938     1.0  0.78560  0.49227  0.15688  1.0000
  S   S250      1.0  0.68663  0.48333  0.28110  1.0000
  H   H1939     1.0  0.77025  0.97031  0.24721  1.0000
  H   H1940     1.0  0.67081  0.87193  0.27479  1.0000
  H   H1941     1.0  0.73453  0.50035  0.29025  1.0000
  H   H1942     1.0  0.92218  0.63736  0.45934  1.0000
  H   H1943     1.0  0.94746  0.95637  0.24569  1.0000
  C   C1102     1.0  0.94479  0.96046  0.27284  1.0000
  S   S251      1.0  0.85381  0.48438  0.23267  1.0000
  H   H1944     1.0  0.95705  0.54100  0.18581  1.0000
  H   H1945     1.0  0.97018  0.48284  0.39083  1.0000
  C   C1103     1.0  0.95914  0.55199  0.20904  1.0000
  H   H1946     1.0  0.97097  0.71183  0.00524  1.0000
  H   H1947     1.0  0.65063  0.89382  0.29342  1.0000
  H   H1948     1.0  0.94596  0.54764  0.44818  1.0000
  H   H1949     1.0  0.96476  0.53983  0.22974  1.0000
  H   H1950     1.0  0.65424  0.93775  0.17146  1.0000
  H   H1951     1.0  0.94799  0.65541  0.46700  1.0000
  H   H1952     1.0  0.64338  0.86635  0.22688  1.0000
  C   C1104     1.0  0.75806  0.47999  0.25707  1.0000
  H   H1953     1.0  0.91849  0.66943  0.46390  1.0000
  H   H1954     1.0  0.96846  0.92283  0.30573  1.0000
  H   H1955     1.0  0.97424  0.58621  0.22229  1.0000
  H   H1956     1.0  0.83984  0.96275  0.17252  1.0000
  H   H1957     1.0  0.71927  0.48289  0.15899  1.0000
  H   H1958     1.0  0.97201  0.49049  0.27004  1.0000
  C   C1105     1.0  0.96868  0.95970  0.29188  1.0000
  C   C1106     1.0  0.96481  0.47512  0.22183  1.0000
  H   H1959     1.0  0.97408  0.97004  0.19381  1.0000
  H   H1960     1.0  0.64194  0.86284  0.28929  1.0000
  H   H1961     1.0  0.68264  0.97469  0.31812  1.0000
  H   H1962     1.0  0.96777  0.53995  0.83993  1.0000
  H   H1963     1.0  0.73380  0.50761  0.75956  1.0000
  S   S252      1.0  0.95398  0.86534  0.89934  1.0000
  C   C1107     1.0  0.92503  0.62063  0.63336  1.0000
  H   H1964     1.0  0.92998  0.68846  0.51831  1.0000
  C   C1108     1.0  0.93052  0.64804  0.58329  1.0000
  S   S253      1.0  0.92594  0.94870  0.79588  1.0000
  C   C1109     1.0  0.95159  0.81728  0.82111  1.0000
  H   H1965     1.0  0.90821  0.70465  0.56235  1.0000
  C   C1110     1.0  0.90356  0.96114  0.90553  1.0000
  S   S254      1.0  0.94038  0.58252  0.55949  1.0000
  C   C1111     1.0  0.88436  0.67548  0.56358  1.0000
  H   H1966     1.0  0.94788  0.63849  0.57833  1.0000
  S   S255      1.0  0.89880  0.51661  0.67644  1.0000
  H   H1967     1.0  0.95915  0.56848  0.62640  1.0000
  H   H1968     1.0  0.86271  0.70837  0.56935  1.0000
  H   H1969     1.0  0.92706  0.96823  0.56866  1.0000
  H   H1970     1.0  0.96147  0.84464  0.72625  1.0000
  C   C1112     1.0  0.93005  0.56307  0.59162  1.0000
  C   C1113     1.0  0.94238  0.55965  0.62211  1.0000
  C   C1114     1.0  0.93266  0.54524  0.64758  1.0000
  C   C1115     1.0  0.91091  0.53342  0.64262  1.0000
  C   C1116     1.0  0.89876  0.53664  0.61195  1.0000
  C   C1117     1.0  0.90815  0.55154  0.58684  1.0000
  H   H1971     1.0  0.67343  0.93458  0.80922  1.0000
  H   H1972     1.0  0.94209  0.54319  0.67132  1.0000
  H   H1973     1.0  0.88169  0.52828  0.60804  1.0000
  H   H1974     1.0  0.89824  0.55429  0.56362  1.0000
  H   H1975     1.0  0.94797  0.68855  0.61228  1.0000
  C   C1118     1.0  0.92533  0.65021  0.51085  1.0000
  H   H1976     1.0  0.93462  0.63319  0.51822  1.0000
  H   H1977     1.0  0.92119  0.61998  0.66075  1.0000
  C   C1119     1.0  0.94699  0.89055  0.87356  1.0000
  H   H1978     1.0  0.84594  0.68119  0.56809  1.0000
  C   C1120     1.0  0.95784  0.92082  0.83275  1.0000
  C   C1121     1.0  0.93364  0.92766  0.82793  1.0000
  C   C1122     1.0  0.91624  0.91643  0.84699  1.0000
  C   C1123     1.0  0.92287  0.89785  0.86941  1.0000
  H   H1979     1.0  0.70570  0.96318  0.81541  1.0000
  N   N62       1.0  0.93083  0.67289  0.56834  1.0000
  H   H1980     1.0  0.89754  0.92139  0.84346  1.0000
  H   H1981     1.0  0.90915  0.88871  0.88310  1.0000
  H   H1982     1.0  0.90361  0.90422  0.74070  1.0000
  H   H1983     1.0  0.95497  0.94344  0.50435  1.0000
  H   H1984     1.0  0.90308  0.96436  0.87799  1.0000
  N   N63       1.0  0.96504  0.85038  0.78002  1.0000
  C   C1124     1.0  0.82229  0.47997  0.79063  1.0000
  H   H1985     1.0  0.83823  0.49120  0.78737  1.0000
  C   C1125     1.0  0.68701  0.97026  0.81762  1.0000
  H   H1986     1.0  0.87677  0.95873  0.94511  1.0000
  H   H1987     1.0  0.96088  0.81523  0.87450  1.0000
  C   C1126     1.0  0.90796  0.68699  0.57516  1.0000
  C   C1127     1.0  0.94048  0.86225  0.78304  1.0000
  C   C1128     1.0  0.95945  0.80314  0.85231  1.0000
  C   C1129     1.0  0.93450  0.49209  0.54855  1.0000
  S   S256      1.0  0.69019  0.48348  0.77438  1.0000
  C   C1130     1.0  0.93389  0.88170  0.75632  1.0000
  H   H1988     1.0  0.89947  0.48738  0.59868  1.0000
  H   H1989     1.0  0.89586  0.87407  0.75178  1.0000
  H   H1990     1.0  0.94962  0.80421  0.80022  1.0000
  H   H1991     1.0  0.88305  0.65668  0.57206  1.0000
  C   C1131     1.0  0.90746  0.88928  0.75848  1.0000
  H   H1992     1.0  0.94601  0.78943  0.85806  1.0000
  H   H1993     1.0  0.97056  0.84947  0.83384  1.0000
  H   H1994     1.0  0.92255  0.49277  0.52607  1.0000
  H   H1995     1.0  0.94917  0.82191  0.75071  1.0000
  H   H1996     1.0  0.93845  0.87102  0.80817  1.0000
  H   H1997     1.0  0.92629  0.84862  0.78174  1.0000
  H   H1998     1.0  0.72041  0.96800  0.73432  1.0000
  H   H1999     1.0  0.88889  0.47622  0.55831  1.0000
  Fe  Fe128     1.0  0.87577  0.48292  0.67613  1.0000
  H   H2000     1.0  0.95558  0.66994  0.52646  1.0000
  H   H2001     1.0  0.90605  0.64800  0.51551  1.0000
  H   H2002     1.0  0.91697  0.63675  0.57083  1.0000
  H   H2003     1.0  0.93719  0.87524  0.73031  1.0000
  C   C1132     1.0  0.96453  0.90254  0.85567  1.0000
  H   H2004     1.0  0.94266  0.61158  0.62889  1.0000
  H   H2005     1.0  0.93256  0.56543  0.82724  1.0000
  C   C1133     1.0  0.97351  0.51091  0.59578  1.0000
  H   H2006     1.0  0.68174  0.97020  0.84453  1.0000
  H   H2007     1.0  0.90656  0.69136  0.60250  1.0000
  H   H2008     1.0  0.93382  0.82565  0.82675  1.0000
  H   H2009     1.0  0.93634  0.94510  0.96774  1.0000
  C   C1134     1.0  0.93589  0.67150  0.53092  1.0000
  H   H2010     1.0  0.92938  0.50830  0.56354  1.0000
  H   H2011     1.0  0.81365  0.47755  0.76560  1.0000
  C   C1135     1.0  0.96463  0.83406  0.74955  1.0000
  H   H2012     1.0  0.90297  0.89565  0.78426  1.0000
  C   C1136     1.0  0.75909  0.48157  0.73896  1.0000
  H   H2013     1.0  0.97147  0.92940  0.81816  1.0000
  H   H2014     1.0  0.86680  0.94959  0.90381  1.0000
  H   H2015     1.0  0.91023  0.94260  0.91034  1.0000
  H   H2016     1.0  0.65198  0.95844  0.80046  1.0000
  H   H2017     1.0  0.93352  0.96899  0.67659  1.0000
  C   C1137     1.0  0.67114  0.95283  0.79845  1.0000
  H   H2018     1.0  0.67032  0.50232  0.70724  1.0000
  H   H2019     1.0  0.90803  0.65522  0.62793  1.0000
  C   C1138     1.0  0.94982  0.56891  0.81464  1.0000
  H   H2020     1.0  0.96596  0.95628  0.97618  1.0000
  H   H2021     1.0  0.94453  0.89802  0.76048  1.0000
  H   H2022     1.0  0.95401  0.90708  0.94635  1.0000
  H   H2023     1.0  0.88289  0.67618  0.53572  1.0000
  C   C1139     1.0  0.86264  0.68935  0.57757  1.0000
  C   C1140     1.0  0.66630  0.49383  0.68252  1.0000
  C   C1141     1.0  0.75720  0.97285  0.75032  1.0000
  C   C1142     1.0  0.87770  0.96278  0.91779  1.0000
  C   C1143     1.0  0.92558  0.64665  0.62168  1.0000
  H   H2024     1.0  0.96818  0.67510  0.58281  1.0000
  H   H2025     1.0  0.96026  0.71082  0.54374  1.0000
  C   C1144     1.0  0.95121  0.68600  0.58491  1.0000
  C   C1145     1.0  0.96504  0.91939  0.96167  1.0000
  C   C1146     1.0  0.96991  0.83670  0.81221  1.0000
  H   H2026     1.0  0.95841  0.53195  0.53815  1.0000
  H   H2027     1.0  0.96456  0.91338  0.98830  1.0000
  H   H2028     1.0  0.76009  0.95416  0.75669  1.0000
  H   H2029     1.0  0.95114  0.58857  0.81097  1.0000
  H   H2030     1.0  0.67624  0.95202  0.77143  1.0000
  H   H2031     1.0  0.93980  0.65536  0.63658  1.0000
  H   H2032     1.0  0.94953  0.94078  0.90506  1.0000
  C   C1147     1.0  0.73672  0.48901  0.75255  1.0000
  H   H2033     1.0  0.86258  0.68867  0.60555  1.0000
  H   H2034     1.0  0.77303  0.49444  0.73560  1.0000
  N   N64       1.0  0.96032  0.49296  0.53812  1.0000
  C   C1148     1.0  0.95620  0.71140  0.57105  1.0000
  C   C1149     1.0  0.95696  0.95444  0.92251  1.0000
  H   H2035     1.0  0.95521  0.51015  0.60624  1.0000
  H   H2036     1.0  0.91090  0.61072  0.61970  1.0000
  H   H2037     1.0  0.80954  0.48962  0.80759  1.0000
  H   H2038     1.0  0.94065  0.72379  0.57499  1.0000
  H   H2039     1.0  0.64783  0.49938  0.67486  1.0000
  C   C1150     1.0  0.95513  0.94510  0.95899  1.0000
  H   H2040     1.0  0.94977  0.55982  0.78965  1.0000
  C   C1151     1.0  0.96379  0.51684  0.52120  1.0000
  H   H2041     1.0  0.96935  0.78775  0.72169  1.0000
  H   H2042     1.0  0.96937  0.56872  0.86113  1.0000
  H   H2043     1.0  0.94930  0.48003  0.98765  1.0000
  H   H2044     1.0  0.67928  0.50037  0.66382  1.0000
  H   H2045     1.0  0.96385  0.52944  0.98876  1.0000
  H   H2046     1.0  0.93976  0.96964  0.86319  1.0000
  C   C1152     1.0  0.97057  0.55939  0.83647  1.0000
  H   H2047     1.0  0.93047  0.97392  0.72161  1.0000
  H   H2048     1.0  0.97391  0.72452  0.61650  1.0000
