data_image0
_chemical_formula_structural       FeS2HSHFeSFeS3FeSHFeHFeS2NHCH2C4H2C2HC4H4C2H4C2HCSH6C2HC3NHCH3C2H6CH2SH6CHCH3CH4CH3CH3C4H3C3HC3HCFeH5CH3SH2C3H4CH3CH3CH2FeS2HSHFeSFeS3FeCH2CFeHSH2C6H3CHC5H5CH3NC2HC2H7FeH2CH4C2HFeCHCHCHC2H4CH3NCHCH2SH3C2H3C2H3CH5C2H2CHCH5CHC2SCH4CSH2CH2CH8CH4FeS2FeS2FeSFeS3H4FeHSFeS2FeSH2CSHSCH3CHC5H3C2H2C6H4C6H4C6H4CHNH2CHNC12H29CNC4HC2HCHC2H11CH2SCNHSCH3C2H4CH3FeCH2SH13CH3C2HSH2CH5C4H3CHC2HCHCH2C3H2C2H2CH5CH2C4H4C3H5C2H2CH4CHFeCH4SH3CHFeCSHC2H2CH2C2H3CHSH2C3H3NCH4FeS2FeS2FeSFeS3H2C2FeHSHS2FeSH3SHSCH2C8H3CHNC7H4C6H4C6H4C2H5CHCFeCHCH3CH9CH5NHNH4CH3CH3CHCHCH2CHC2HCH2CHCHCH7SH2CSCH3CHCH4CHCH2C2HC3HC2H8FeHCH2C2H6CHNHCH2CHC2H5CNSHNC9HCH5CH10CHSHCHC2H2CHCH3CSHSHSHCH3SFeS2FeS2FeSFeS3FeS2CFeHCHSH2C2HC3NCH2C6H5C2H2C7H7NC2H4C4H2CHNCH3SH3CH5CH7CHC3HNC3SH16CH3C2H4C2H2CH5C2HC2H5CHCHCHC2HCHCH13C2HC2H3CH3CHCH6CH2CH3FeNC2H3FeCHCH3CH3SFeS2FeS2FeSFeS3FeS2HFeHFeHS2HC2HC3H4C6H5C2H2C6H5CH9C2HC2HNH2CH3C2H4CHCNCH4C2HSH6C2H6CNC8SCHCH10CH7C2H8CH3C3NHCHCHC2H2CNH3CH4CHC2H2C2HCH6CH4CH2FeHC3H4CH4CHCH3CH3CHCH2SH6CH4CHCFeS2FeS2FeSFeHS2FeS2H2FeS2CHC7H2C7H4C6H4CH5NC11H27CHCH2CNH7C2HCH2CH2CH2C2H5CHCSH5CH2C2NH3C3HSCH3CH2CFeH2NHCH5CH2C2HSH2CHC2H2FeHSH3CHCHCHCH3FeS2FeS2FeSFeCS2FeCSC2FeS2CHC7H3C6H4C6H6CHSHCHCH2CHCH2CH7CH7CH4C2H3NH5C2HSH6CH3CH5NHCH8C3H4CH3CHC3HSCHCHCHCH2CH2CH4FeHNH3CHC2H3NH4C2H2CHC2H2CH5CH2CFe2SHS2FeS2FeHSH3SFeS2FeS2FeSFeS3C3H2C6H5CH2C7H4C6H6C4H4CHC2HCH3CH2C2H2NCHC2H8CH5CH4CH4CH8NHSHC2H14CHC2H4CH2CHCH7C3SFeCH2CH5CHCNC8H9CH3CH2NHC4HC2HCHCH4CH2CH8CSH2C3H2SC2HCH2CH2CHC2H2C2H2C2HCSH3CH2SNCH4SCH6C2HNHC2HCHCH3CH3C2H7CH2CH6CSFeHCFeHSCS2FeSCH2SH2FeSFeS2FeS2FeSFeS3HCSH2C6H9C6H4C6H6C2H2CHC3H2CHCH3NH2CH4CHCHC3H2CSH2C2H4CHCHC2H3CH2CH2C2H4CH4C3HC2H7CH4CH6CH2C2H2CH2CH2SH3FeH6FeHCH2C2HSH3CH5NC12H25C2SNC9H2SCH3CHCSCNHC2H6SH6FeS2FeS2Fe2HS2FeSCHFeSH4C6H5C6H2C3H3NC5HC3H2CH9SH11CH2CSH2CSH5CH4CHCHCHC2FeH2C2H4CHFeS2FeS2Fe2HS2FeS2HFeSH4C6H6C4HCH2CH4NC6H2CHCH8CH3CH2C4H7NC9H15CHFeC2H5CHCH3SH3CNH5C2H2CH2CH2CH2CHCHCH3CH6CH2CH2C2HSH5CHCH2CHSH3CNHCH
_chemical_formula_sum              "Fe96 S192 H1536 N48 C864"
_cell_length_a       51.4691
_cell_length_b       51.5008
_cell_length_c       41.3648
_cell_angle_alpha    89.9979
_cell_angle_beta     89.8774
_cell_angle_gamma    119.907

_space_group_name_H-M_alt    "P 1"
_space_group_IT_number       1

loop_
  _space_group_symop_operation_xyz
  'x, y, z'

loop_
  _atom_site_type_symbol
  _atom_site_label
  _atom_site_symmetry_multiplicity
  _atom_site_fract_x
  _atom_site_fract_y
  _atom_site_fract_z
  _atom_site_occupancy
  Fe  Fe1       1.0  0.43701  0.16128  0.18734  1.0000
  S   S1        1.0  0.40533  0.12971  0.14928  1.0000
  S   S2        1.0  0.41526  0.17712  0.22499  1.0000
  H   H1        1.0  0.04855  0.26135  0.12118  1.0000
  S   S3        1.0  0.46115  0.12550  0.12083  1.0000
  H   H2        1.0  0.45270  0.18838  0.33036  1.0000
  Fe  Fe2       1.0  0.44321  0.15737  0.11408  1.0000
  S   S4        1.0  0.44667  0.17586  0.06201  1.0000
  Fe  Fe3       1.0  0.42664  0.10117  0.16015  1.0000
  S   S5        1.0  0.40977  0.05012  0.16613  1.0000
  S   S6        1.0  0.47372  0.18965  0.15188  1.0000
  S   S7        1.0  0.45641  0.13174  0.19915  1.0000
  Fe  Fe4       1.0  0.42140  0.26719  0.43688  1.0000
  S   S8        1.0  0.47031  0.29280  0.42484  1.0000
  H   H3        1.0  0.46720  0.02874  0.19310  1.0000
  Fe  Fe5       1.0  0.40771  0.30600  0.38744  1.0000
  H   H4        1.0  0.06881  0.29526  0.02290  1.0000
  Fe  Fe6       1.0  0.45539  0.28888  0.37298  1.0000
  S   S9        1.0  0.47864  0.27496  0.33564  1.0000
  S   S10       1.0  0.40646  0.26136  0.38452  1.0000
  N   N1        1.0  0.43937  0.18054  0.39798  1.0000
  H   H5        1.0  0.36759  0.19814  0.41023  1.0000
  C   C1        1.0  0.43345  0.20418  0.25574  1.0000
  H   H6        1.0  0.41283  0.14625  0.43313  1.0000
  H   H7        1.0  0.48299  0.03768  0.11298  1.0000
  C   C2        1.0  0.46057  0.24730  0.30542  1.0000
  C   C3        1.0  0.47812  0.24248  0.28276  1.0000
  C   C4        1.0  0.46466  0.22098  0.25808  1.0000
  C   C5        1.0  0.47068  0.20675  0.39345  1.0000
  H   H8        1.0  0.35348  0.21968  0.33188  1.0000
  H   H9        1.0  0.37218  0.29704  0.19762  1.0000
  C   C6        1.0  0.45538  0.14452  0.47303  1.0000
  C   C7        1.0  0.05709  0.30808  0.02707  1.0000
  H   H10       1.0  0.45171  0.13414  0.42246  1.0000
  C   C8        1.0  0.41609  0.20739  0.05007  1.0000
  C   C9        1.0  0.43951  0.20233  0.04133  1.0000
  C   C10       1.0  0.45639  0.21689  0.01345  1.0000
  C   C11       1.0  0.37991  0.27265  0.29495  1.0000
  H   H11       1.0  0.39020  0.22843  0.03714  1.0000
  H   H12       1.0  0.40268  0.19632  0.07119  1.0000
  H   H13       1.0  0.47842  0.21754  0.24072  1.0000
  H   H14       1.0  0.34605  0.27789  0.24805  1.0000
  C   C12       1.0  0.38935  0.02214  0.19658  1.0000
  C   C13       1.0  0.36928  0.02409  0.21803  1.0000
  H   H15       1.0  0.41260  0.17116  0.33405  1.0000
  H   H16       1.0  0.36671  0.04369  0.21746  1.0000
  H   H17       1.0  0.42645  0.15071  0.28780  1.0000
  H   H18       1.0  0.33197  0.25838  0.29747  1.0000
  C   C14       1.0  0.44957  0.23545  0.99419  1.0000
  C   C15       1.0  0.41587  0.20888  0.27855  1.0000
  H   H19       1.0  0.33581  0.00192  0.25534  1.0000
  C   C16       1.0  0.48507  0.05660  0.12763  1.0000
  S   S11       1.0  0.40142  0.22807  0.47388  1.0000
  H   H20       1.0  0.48115  0.17108  0.43271  1.0000
  H   H21       1.0  0.43095  0.32237  0.24092  1.0000
  H   H22       1.0  0.36882  0.19254  0.36705  1.0000
  H   H23       1.0  0.41559  0.23336  0.32094  1.0000
  H   H24       1.0  0.44677  0.07584  0.47549  1.0000
  H   H25       1.0  0.04307  0.30016  0.09113  1.0000
  C   C17       1.0  0.42531  0.23940  0.00217  1.0000
  C   C18       1.0  0.42933  0.23020  0.30339  1.0000
  H   H26       1.0  0.45853  0.07357  0.07984  1.0000
  C   C19       1.0  0.38862  0.26180  0.23940  1.0000
  C   C20       1.0  0.41094  0.27200  0.21050  1.0000
  C   C21       1.0  0.40898  0.22558  0.03053  1.0000
  N   N2        1.0  0.39017  0.28592  0.26159  1.0000
  H   H27       1.0  0.39170  0.19576  0.27707  1.0000
  C   C22       1.0  0.40382  0.24577  0.18794  1.0000
  H   H28       1.0  0.45170  0.15183  0.37206  1.0000
  H   H29       1.0  0.45115  0.99818  0.14507  1.0000
  H   H30       1.0  0.03384  0.29082  0.03407  1.0000
  C   C23       1.0  0.37645  0.31320  0.21742  1.0000
  C   C24       1.0  0.48581  0.03017  0.17784  1.0000
  H   H31       1.0  0.43731  0.18143  0.45029  1.0000
  H   H32       1.0  0.33210  0.30866  0.21219  1.0000
  H   H33       1.0  0.39334  0.26256  0.30364  1.0000
  H   H34       1.0  0.39265  0.24553  0.25314  1.0000
  H   H35       1.0  0.37772  0.15687  0.42105  1.0000
  H   H36       1.0  0.43420  0.28069  0.21918  1.0000
  C   C25       1.0  0.42143  0.31240  0.26480  1.0000
  H   H37       1.0  0.45414  0.30578  0.02305  1.0000
  H   H38       1.0  0.44322  0.28526  0.27267  1.0000
  S   S12       1.0  0.41756  0.30891  0.44102  1.0000
  H   H39       1.0  0.38402  0.29056  0.31268  1.0000
  H   H40       1.0  0.49211  0.32679  0.29103  1.0000
  H   H41       1.0  0.08411  0.26249  0.12095  1.0000
  H   H42       1.0  0.40485  0.22757  0.20129  1.0000
  H   H43       1.0  0.38116  0.23674  0.17723  1.0000
  H   H44       1.0  0.42053  0.25335  0.16801  1.0000
  C   C26       1.0  0.42794  0.14337  0.31264  1.0000
  H   H45       1.0  0.33972  0.23138  0.27837  1.0000
  C   C27       1.0  0.43191  0.16744  0.33695  1.0000
  H   H46       1.0  0.44738  0.13960  0.31342  1.0000
  H   H47       1.0  0.31614  0.21440  0.33214  1.0000
  H   H48       1.0  0.41268  0.13626  0.37711  1.0000
  C   C28       1.0  0.36936  0.29688  0.25042  1.0000
  H   H49       1.0  0.47470  0.21340  0.00650  1.0000
  H   H50       1.0  0.47152  0.22021  0.37196  1.0000
  H   H51       1.0  0.46161  0.05134  0.13247  1.0000
  H   H52       1.0  0.47884  0.09519  0.23780  1.0000
  C   C29       1.0  0.36393  0.18151  0.39110  1.0000
  H   H53       1.0  0.41065  0.28990  0.19607  1.0000
  H   H54       1.0  0.34621  0.24718  0.35084  1.0000
  H   H55       1.0  0.37803  0.15028  0.37829  1.0000
  C   C30       1.0  0.34646  0.24805  0.29815  1.0000
  H   H56       1.0  0.10654  0.30793  0.08750  1.0000
  H   H57       1.0  0.42115  0.20769  0.41593  1.0000
  H   H58       1.0  0.00511  0.31645  0.29693  1.0000
  C   C31       1.0  0.06743  0.31411  0.08543  1.0000
  C   C32       1.0  0.41754  0.19199  0.39574  1.0000
  C   C33       1.0  0.34031  0.23135  0.33027  1.0000
  C   C34       1.0  0.07321  0.27642  0.11959  1.0000
  H   H59       1.0  0.07436  0.27729  0.06795  1.0000
  H   H60       1.0  0.11781  0.31860  0.03618  1.0000
  H   H61       1.0  0.36555  0.24817  0.22953  1.0000
  C   C35       1.0  0.35607  0.32644  0.21151  1.0000
  C   C36       1.0  0.47114  0.00065  0.15809  1.0000
  C   C37       1.0  0.43362  0.15772  0.37202  1.0000
  H   H62       1.0  0.42172  0.20571  0.37347  1.0000
  C   C38       1.0  0.08174  0.29391  0.08777  1.0000
  C   C39       1.0  0.45751  0.15406  0.43770  1.0000
  C   C40       1.0  0.38380  0.16776  0.39693  1.0000
  H   H63       1.0  0.40700  0.12198  0.31767  1.0000
  C   C41       1.0  0.43571  0.16596  0.43057  1.0000
  Fe  Fe7       1.0  0.48997  0.15669  0.15952  1.0000
  H   H64       1.0  0.33998  0.16372  0.39176  1.0000
  H   H65       1.0  0.47004  0.13476  0.47703  1.0000
  H   H66       1.0  0.41372  0.31618  0.01004  1.0000
  H   H67       1.0  0.47149  0.29560  0.06575  1.0000
  H   H68       1.0  0.44108  0.15367  0.98834  1.0000
  C   C42       1.0  0.44437  0.30595  0.28202  1.0000
  H   H69       1.0  0.46810  0.23689  0.42941  1.0000
  H   H70       1.0  0.08087  0.29198  0.14054  1.0000
  H   H71       1.0  0.43200  0.12745  0.47945  1.0000
  S   S13       1.0  0.36966  0.31323  0.36761  1.0000
  H   H72       1.0  0.43968  0.30296  0.30837  1.0000
  H   H73       1.0  0.36838  0.31206  0.26904  1.0000
  C   C43       1.0  0.35163  0.00018  0.23951  1.0000
  C   C44       1.0  0.46040  0.32853  0.01478  1.0000
  C   C45       1.0  0.48355  0.22882  0.42229  1.0000
  H   H74       1.0  0.48688  0.19901  0.38779  1.0000
  H   H75       1.0  0.48188  0.25727  0.08662  1.0000
  H   H76       1.0  0.48706  0.21799  0.44371  1.0000
  H   H77       1.0  0.47432  0.07615  0.18222  1.0000
  C   C46       1.0  0.49329  0.29753  0.05921  1.0000
  H   H78       1.0  0.48685  0.00011  0.14014  1.0000
  H   H79       1.0  0.03554  0.32529  0.99462  1.0000
  H   H80       1.0  0.48078  0.05989  0.05991  1.0000
  C   C47       1.0  0.48169  0.07871  0.07394  1.0000
  H   H81       1.0  0.09886  0.32555  0.40286  1.0000
  H   H82       1.0  0.31941  0.32067  0.35116  1.0000
  H   H83       1.0  0.49090  0.28555  0.03623  1.0000
  C   C48       1.0  0.05481  0.32120  0.99411  1.0000
  H   H84       1.0  0.49242  0.09922  0.05870  1.0000
  H   H85       1.0  0.46309  0.32919  0.98813  1.0000
  Fe  Fe8       1.0  0.43206  0.15320  0.69516  1.0000
  S   S14       1.0  0.40050  0.12422  0.65564  1.0000
  S   S15       1.0  0.41325  0.17615  0.72714  1.0000
  H   H86       1.0  0.02039  0.32187  0.90319  1.0000
  S   S16       1.0  0.45112  0.10777  0.63538  1.0000
  H   H87       1.0  0.37519  0.15830  0.61662  1.0000
  Fe  Fe9       1.0  0.44149  0.14506  0.62341  1.0000
  S   S17       1.0  0.45091  0.16504  0.57147  1.0000
  Fe  Fe10      1.0  0.41301  0.08963  0.67148  1.0000
  S   S18       1.0  0.38401  0.03802  0.67521  1.0000
  S   S19       1.0  0.47248  0.17540  0.66244  1.0000
  S   S20       1.0  0.44192  0.11749  0.71239  1.0000
  Fe  Fe11      1.0  0.43157  0.28992  0.93151  1.0000
  C   C49       1.0  0.38788  0.19769  0.64653  1.0000
  H   H88       1.0  0.47968  0.20349  0.86254  1.0000
  H   H89       1.0  0.41502  0.16961  0.95095  1.0000
  C   C50       1.0  0.37013  0.17683  0.61870  1.0000
  Fe  Fe12      1.0  0.45921  0.30208  0.86432  1.0000
  H   H90       1.0  0.45647  0.07010  0.54794  1.0000
  S   S21       1.0  0.41111  0.27983  0.88125  1.0000
  H   H91       1.0  0.37419  0.18187  0.87928  1.0000
  H   H92       1.0  0.44284  0.26926  0.53590  1.0000
  C   C51       1.0  0.43208  0.20589  0.75511  1.0000
  C   C52       1.0  0.41510  0.21475  0.77407  1.0000
  C   C53       1.0  0.42906  0.23859  0.79626  1.0000
  C   C54       1.0  0.46024  0.25403  0.79946  1.0000
  C   C55       1.0  0.42003  0.20499  0.89821  1.0000
  C   C56       1.0  0.46323  0.22109  0.75859  1.0000
  H   H93       1.0  0.39098  0.20316  0.77148  1.0000
  H   H94       1.0  0.41574  0.24524  0.81059  1.0000
  H   H95       1.0  0.37258  0.18140  0.52148  1.0000
  C   C57       1.0  0.47720  0.24508  0.78060  1.0000
  H   H96       1.0  0.02877  0.27792  0.97033  1.0000
  C   C58       1.0  0.41624  0.21242  0.50230  1.0000
  C   C59       1.0  0.45713  0.20782  0.52640  1.0000
  C   C60       1.0  0.43717  0.18442  0.54696  1.0000
  C   C61       1.0  0.40665  0.17530  0.54507  1.0000
  C   C62       1.0  0.39633  0.18914  0.52294  1.0000
  H   H97       1.0  0.47243  0.05317  0.71940  1.0000
  H   H98       1.0  0.44196  0.29612  0.60199  1.0000
  H   H99       1.0  0.39078  0.15678  0.55978  1.0000
  H   H100      1.0  0.22798  0.31273  0.82084  1.0000
  H   H101      1.0  0.46267  0.24617  0.97283  1.0000
  C   C63       1.0  0.36892  0.02245  0.74051  1.0000
  H   H102      1.0  0.48077  0.21513  0.52721  1.0000
  H   H103      1.0  0.37819  0.04611  0.74517  1.0000
  H   H104      1.0  0.38099  0.18402  0.66904  1.0000
  N   N3        1.0  0.43961  0.24481  0.63380  1.0000
  C   C64       1.0  0.43370  0.26352  0.65765  1.0000
  C   C65       1.0  0.43671  0.17209  0.94282  1.0000
  H   H105      1.0  0.41667  0.19074  0.83754  1.0000
  C   C66       1.0  0.46231  0.08374  0.52550  1.0000
  C   C67       1.0  0.48845  0.23258  0.90254  1.0000
  H   H106      1.0  0.41275  0.00304  0.74754  1.0000
  H   H107      1.0  0.18675  0.30911  0.84142  1.0000
  H   H108      1.0  0.42605  0.13308  0.78926  1.0000
  H   H109      1.0  0.43892  0.05507  0.72657  1.0000
  H   H110      1.0  0.46263  0.23996  0.48922  1.0000
  H   H111      1.0  0.44746  0.04452  0.49462  1.0000
  H   H112      1.0  0.45893  0.05147  0.76034  1.0000
  Fe  Fe13      1.0  0.47952  0.13685  0.67580  1.0000
  H   H113      1.0  0.46677  0.22930  0.85674  1.0000
  H   H114      1.0  0.29180  0.30376  0.88651  1.0000
  C   C68       1.0  0.44274  0.06313  0.49841  1.0000
  H   H115      1.0  0.45416  0.18030  0.81732  1.0000
  H   H116      1.0  0.49366  0.21831  0.91824  1.0000
  H   H117      1.0  0.38012  0.16163  0.91107  1.0000
  H   H118      1.0  0.04728  0.30948  0.94336  1.0000
  C   C69       1.0  0.41370  0.13945  0.80665  1.0000
  C   C70       1.0  0.44665  0.28108  0.58694  1.0000
  H   H119      1.0  0.42324  0.22408  0.88262  1.0000
  Fe  Fe14      1.0  0.41763  0.32695  0.87989  1.0000
  C   C71       1.0  0.43637  0.16663  0.90583  1.0000
  H   H120      1.0  0.46757  0.99958  0.72293  1.0000
  C   C72       1.0  0.37275  0.19709  0.92714  1.0000
  H   H121      1.0  0.37814  0.22004  0.92002  1.0000
  C   C73       1.0  0.36905  0.01274  0.70889  1.0000
  H   H122      1.0  0.43136  0.20777  0.66508  1.0000
  C   C74       1.0  0.44177  0.14964  0.96202  1.0000
  C   C75       1.0  0.42992  0.24870  0.60065  1.0000
  H   H123      1.0  0.35601  0.00936  0.79027  1.0000
  H   H124      1.0  0.41166  0.26195  0.65319  1.0000
  H   H125      1.0  0.40569  0.24175  0.60088  1.0000
  H   H126      1.0  0.43175  0.23342  0.58292  1.0000
  C   C76       1.0  0.19532  0.31795  0.86596  1.0000
  H   H127      1.0  0.40235  0.14942  0.79282  1.0000
  H   H128      1.0  0.46892  0.06105  0.61404  1.0000
  H   H129      1.0  0.41602  0.23407  0.70023  1.0000
  N   N4        1.0  0.43613  0.18996  0.88374  1.0000
  C   C77       1.0  0.04963  0.29964  0.96628  1.0000
  H   H130      1.0  0.41188  0.27277  0.55145  1.0000
  C   C78       1.0  0.38569  0.18431  0.90275  1.0000
  H   H131      1.0  0.34800  0.18267  0.92825  1.0000
  H   H132      1.0  0.37544  0.18921  0.59548  1.0000
  S   S22       1.0  0.47912  0.30987  0.91459  1.0000
  H   H133      1.0  0.45184  0.30229  0.71087  1.0000
  H   H134      1.0  0.20088  0.30229  0.87847  1.0000
  H   H135      1.0  0.44484  0.15033  0.84575  1.0000
  C   C79       1.0  0.43284  0.27939  0.71557  1.0000
  C   C80       1.0  0.45213  0.04463  0.73490  1.0000
  H   H136      1.0  0.44767  0.30569  0.54382  1.0000
  H   H137      1.0  0.42659  0.19851  0.62410  1.0000
  H   H138      1.0  0.49340  0.14531  0.54312  1.0000
  C   C81       1.0  0.43500  0.25650  0.69389  1.0000
  C   C82       1.0  0.43653  0.28213  0.55249  1.0000
  H   H139      1.0  0.38190  0.19777  0.95161  1.0000
  H   H140      1.0  0.47842  0.24337  0.91717  1.0000
  H   H141      1.0  0.46406  0.15229  0.95626  1.0000
  C   C83       1.0  0.26231  0.32373  0.76690  1.0000
  H   H142      1.0  0.15007  0.29520  0.88541  1.0000
  H   H143      1.0  0.47656  0.21453  0.74418  1.0000
  H   H144      1.0  0.43382  0.27391  0.74132  1.0000
  H   H145      1.0  0.45019  0.28772  0.65407  1.0000
  H   H146      1.0  0.45447  0.19477  0.94961  1.0000
  C   C84       1.0  0.46761  0.21365  0.87468  1.0000
  C   C85       1.0  0.49320  0.06885  0.61655  1.0000
  H   H147      1.0  0.39647  0.11890  0.81907  1.0000
  H   H148      1.0  0.45590  0.16370  0.90002  1.0000
  C   C86       1.0  0.42006  0.17484  0.85280  1.0000
  H   H149      1.0  0.06895  0.29582  0.96375  1.0000
  C   C87       1.0  0.43556  0.16188  0.83117  1.0000
  H   H150      1.0  0.42982  0.21556  0.92180  1.0000
  H   H151      1.0  0.41634  0.14419  0.90156  1.0000
  H   H152      1.0  0.24989  0.31152  0.86990  1.0000
  H   H153      1.0  0.39716  0.15602  0.85823  1.0000
  H   H154      1.0  0.34575  0.16686  0.62345  1.0000
  C   C88       1.0  0.42247  0.21193  0.64234  1.0000
  H   H155      1.0  0.38051  0.21436  0.64949  1.0000
  C   C89       1.0  0.16969  0.31824  0.88445  1.0000
  C   C90       1.0  0.35629  0.00146  0.76611  1.0000
  S   S23       1.0  0.41365  0.26023  0.97719  1.0000
  C   C91       1.0  0.43296  0.01059  0.73228  1.0000
  H   H156      1.0  0.46290  0.16414  0.48927  1.0000
  H   H157      1.0  0.48746  0.10862  0.58157  1.0000
  H   H158      1.0  0.41133  0.27902  0.71150  1.0000
  H   H159      1.0  0.24420  0.29996  0.76846  1.0000
  C   C92       1.0  0.30160  0.32608  0.89822  1.0000
  S   S24       1.0  0.47912  0.28427  0.82687  1.0000
  H   H160      1.0  0.47313  0.21808  0.60892  1.0000
  H   H161      1.0  0.45619  0.25688  0.69977  1.0000
  C   C93       1.0  0.44686  0.22189  0.50452  1.0000
  H   H162      1.0  0.42398  0.12634  0.95665  1.0000
  H   H163      1.0  0.12932  0.31840  0.49015  1.0000
  C   C94       1.0  0.48463  0.24278  0.60789  1.0000
  H   H164      1.0  0.45617  0.10135  0.52901  1.0000
  H   H165      1.0  0.48633  0.28011  0.63368  1.0000
  H   H166      1.0  0.41873  0.05337  0.50506  1.0000
  H   H167      1.0  0.47868  0.24904  0.65820  1.0000
  H   H168      1.0  0.29218  0.32357  0.92295  1.0000
  H   H169      1.0  0.28189  0.32462  0.75443  1.0000
  H   H170      1.0  0.27941  0.32370  0.81365  1.0000
  H   H171      1.0  0.48139  0.24961  0.58348  1.0000
  C   C95       1.0  0.47273  0.25523  0.63469  1.0000
  H   H172      1.0  0.17659  0.32622  0.90961  1.0000
  H   H173      1.0  0.47122  0.29020  0.58624  1.0000
  H   H174      1.0  0.46404  0.00634  0.76396  1.0000
  H   H175      1.0  0.42560  0.00532  0.70670  1.0000
  Fe  Fe15      1.0  0.32130  0.47121  0.24453  1.0000
  S   S25       1.0  0.32495  0.44060  0.20900  1.0000
  S   S26       1.0  0.35455  0.52134  0.24516  1.0000
  Fe  Fe16      1.0  0.26597  0.41941  0.27632  1.0000
  S   S27       1.0  0.26647  0.38561  0.24167  1.0000
  S   S28       1.0  0.23130  0.40141  0.31691  1.0000
  Fe  Fe17      1.0  0.31645  0.40941  0.25140  1.0000
  S   S29       1.0  0.35102  0.39368  0.26041  1.0000
  Fe  Fe18      1.0  0.27476  0.42029  0.20296  1.0000
  S   S30       1.0  0.25738  0.41470  0.15021  1.0000
  S   S31       1.0  0.31519  0.44155  0.28719  1.0000
  S   S32       1.0  0.27166  0.45243  0.23740  1.0000
  H   H176      1.0  0.11875  0.59828  0.15674  1.0000
  H   H177      1.0  0.38557  0.42677  0.20067  1.0000
  H   H178      1.0  0.48225  0.42862  0.43610  1.0000
  H   H179      1.0  0.21400  0.37945  0.42217  1.0000
  Fe  Fe19      1.0  0.14295  0.43499  0.02082  1.0000
  H   H180      1.0  0.15139  0.62509  0.20365  1.0000
  S   S33       1.0  0.15460  0.42556  0.07217  1.0000
  Fe  Fe20      1.0  0.09308  0.41702  0.45786  1.0000
  S   S34       1.0  0.11478  0.46200  0.43408  1.0000
  S   S35       1.0  0.04960  0.37619  0.43941  1.0000
  Fe  Fe21      1.0  0.15811  0.46219  0.44094  1.0000
  S   S36       1.0  0.19129  0.47989  0.39929  1.0000
  H   H181      1.0  0.09043  0.55474  0.00986  1.0000
  H   H182      1.0  0.26102  0.37706  0.41698  1.0000
  C   C96       1.0  0.37971  0.49103  0.33340  1.0000
  S   S37       1.0  0.09836  0.43353  0.01471  1.0000
  H   H183      1.0  0.36694  0.49962  0.31976  1.0000
  S   S38       1.0  0.16823  0.63499  0.07656  1.0000
  C   C97       1.0  0.01529  0.63170  0.12447  1.0000
  H   H184      1.0  0.10011  0.35865  0.41893  1.0000
  H   H185      1.0  0.35994  0.34357  0.23009  1.0000
  H   H186      1.0  0.39352  0.57689  0.07783  1.0000
  C   C98       1.0  0.12610  0.54575  0.02093  1.0000
  H   H187      1.0  0.09467  0.64064  0.47158  1.0000
  C   C99       1.0  0.12334  0.58911  0.04073  1.0000
  C   C100      1.0  0.15075  0.59984  0.05657  1.0000
  C   C101      1.0  0.16528  0.58285  0.05547  1.0000
  C   C102      1.0  0.15295  0.55582  0.03785  1.0000
  C   C103      1.0  0.00463  0.39159  0.36667  1.0000
  H   H188      1.0  0.11163  0.60163  0.04180  1.0000
  H   H189      1.0  0.18641  0.59086  0.06782  1.0000
  H   H190      1.0  0.26225  0.50297  0.47745  1.0000
  C   C104      1.0  0.02206  0.37256  0.41067  1.0000
  C   C105      1.0  0.02607  0.39621  0.39065  1.0000
  H   H191      1.0  0.04596  0.41791  0.39325  1.0000
  H   H192      1.0  0.20336  0.42423  0.45853  1.0000
  C   C106      1.0  0.22122  0.42389  0.34007  1.0000
  C   C107      1.0  0.20113  0.41082  0.36603  1.0000
  C   C108      1.0  0.19200  0.42775  0.38465  1.0000
  C   C109      1.0  0.20270  0.45789  0.37720  1.0000
  C   C110      1.0  0.22277  0.47096  0.35125  1.0000
  C   C111      1.0  0.23207  0.45407  0.33277  1.0000
  H   H193      1.0  0.19240  0.38737  0.37149  1.0000
  H   H194      1.0  0.17652  0.41746  0.40451  1.0000
  H   H195      1.0  0.23119  0.49429  0.34538  1.0000
  H   H196      1.0  0.24748  0.46435  0.31279  1.0000
  C   C112      1.0  0.22953  0.41957  0.12924  1.0000
  C   C113      1.0  0.23049  0.42134  0.09516  1.0000
  C   C114      1.0  0.20857  0.42426  0.07736  1.0000
  C   C115      1.0  0.18468  0.42463  0.09328  1.0000
  C   C116      1.0  0.18391  0.42317  0.12737  1.0000
  C   C117      1.0  0.20627  0.42104  0.14522  1.0000
  H   H197      1.0  0.24829  0.42029  0.08237  1.0000
  H   H198      1.0  0.20983  0.42554  0.05126  1.0000
  H   H199      1.0  0.16574  0.42354  0.14014  1.0000
  H   H200      1.0  0.20503  0.41972  0.17132  1.0000
  C   C118      1.0  0.38505  0.53884  0.21775  1.0000
  C   C119      1.0  0.40576  0.56957  0.22095  1.0000
  C   C120      1.0  0.43047  0.58401  0.19978  1.0000
  C   C121      1.0  0.43461  0.56775  0.17521  1.0000
  C   C122      1.0  0.41382  0.53708  0.17196  1.0000
  C   C123      1.0  0.38920  0.52273  0.19308  1.0000
  H   H201      1.0  0.40277  0.58227  0.23998  1.0000
  H   H202      1.0  0.44638  0.60764  0.20255  1.0000
  H   H203      1.0  0.41689  0.52434  0.15304  1.0000
  H   H204      1.0  0.37353  0.49915  0.19033  1.0000
  C   C124      1.0  0.35625  0.37258  0.29185  1.0000
  H   H205      1.0  0.10470  0.36268  0.29886  1.0000
  N   N5        1.0  0.17609  0.64225  0.44542  1.0000
  H   H206      1.0  0.08948  0.60448  0.48347  1.0000
  H   H207      1.0  0.15552  0.39968  0.24980  1.0000
  C   C125      1.0  0.40056  0.44802  0.18774  1.0000
  H   H208      1.0  0.18590  0.34955  0.47983  1.0000
  N   N6        1.0  0.31305  0.51702  0.12707  1.0000
  C   C126      1.0  0.33784  0.54212  0.10791  1.0000
  C   C127      1.0  0.28494  0.50269  0.10691  1.0000
  C   C128      1.0  0.30854  0.52984  0.15806  1.0000
  C   C129      1.0  0.32104  0.49344  0.13584  1.0000
  C   C130      1.0  0.32829  0.47863  0.10717  1.0000
  C   C131      1.0  0.36975  0.55562  0.12250  1.0000
  C   C132      1.0  0.27914  0.50940  0.17690  1.0000
  C   C133      1.0  0.27289  0.52367  0.09651  1.0000
  C   C134      1.0  0.24177  0.50582  0.08138  1.0000
  C   C135      1.0  0.34090  0.45908  0.11918  1.0000
  C   C136      1.0  0.39251  0.58299  0.10338  1.0000
  C   C137      1.0  0.27918  0.52265  0.20997  1.0000
  H   H209      1.0  0.33319  0.56093  0.10508  1.0000
  H   H210      1.0  0.33860  0.53483  0.08276  1.0000
  H   H211      1.0  0.28870  0.49364  0.08407  1.0000
  H   H212      1.0  0.26682  0.48279  0.11958  1.0000
  H   H213      1.0  0.30925  0.55150  0.15358  1.0000
  H   H214      1.0  0.32744  0.53550  0.17503  1.0000
  H   H215      1.0  0.34013  0.50263  0.15297  1.0000
  H   H216      1.0  0.30249  0.47491  0.14945  1.0000
  H   H217      1.0  0.34502  0.49547  0.09043  1.0000
  H   H218      1.0  0.30759  0.46391  0.09336  1.0000
  H   H219      1.0  0.37027  0.56268  0.14793  1.0000
  H   H220      1.0  0.37746  0.53900  0.12182  1.0000
  H   H221      1.0  0.27608  0.48679  0.18070  1.0000
  H   H222      1.0  0.25931  0.50674  0.16351  1.0000
  H   H223      1.0  0.27118  0.53643  0.11716  1.0000
  H   H224      1.0  0.28806  0.53998  0.07818  1.0000
  H   H225      1.0  0.22537  0.49026  0.09943  1.0000
  H   H226      1.0  0.23404  0.52131  0.07297  1.0000
  H   H227      1.0  0.24224  0.49268  0.06030  1.0000
  H   H228      1.0  0.36200  0.47273  0.13283  1.0000
  H   H229      1.0  0.32433  0.44086  0.13497  1.0000
  H   H230      1.0  0.38664  0.60102  0.10416  1.0000
  H   H231      1.0  0.25782  0.50774  0.22277  1.0000
  H   H232      1.0  0.29794  0.52458  0.22500  1.0000
  H   H233      1.0  0.28140  0.54512  0.20728  1.0000
  H   H234      1.0  0.17618  0.60853  0.47671  1.0000
  H   H235      1.0  0.44404  0.53057  0.22365  1.0000
  H   H236      1.0  0.00260  0.44093  0.39601  1.0000
  H   H237      1.0  0.00858  0.40979  0.35065  1.0000
  C   C138      1.0  0.06414  0.37051  0.08504  1.0000
  N   N7        1.0  0.10149  0.39648  0.32749  1.0000
  C   C139      1.0  0.11497  0.38735  0.30037  1.0000
  C   C140      1.0  0.06806  0.38298  0.32249  1.0000
  C   C141      1.0  0.11592  0.43028  0.32641  1.0000
  C   C142      1.0  0.10802  0.38819  0.36027  1.0000
  H   H238      1.0  0.26011  0.45546  0.46493  1.0000
  C   C143      1.0  0.14925  0.39970  0.30207  1.0000
  C   C144      1.0  0.10038  0.44411  0.34669  1.0000
  H   H239      1.0  0.05027  0.39931  0.06061  1.0000
  C   C145      1.0  0.47640  0.33184  0.27773  1.0000
  H   H240      1.0  0.20696  0.63448  0.39199  1.0000
  C   C146      1.0  0.14834  0.63933  0.46159  1.0000
  C   C147      1.0  0.11960  0.47824  0.34805  1.0000
  H   H241      1.0  0.10995  0.39431  0.27675  1.0000
  H   H242      1.0  0.11967  0.57272  0.18588  1.0000
  H   H243      1.0  0.05695  0.38231  0.34585  1.0000
  H   H244      1.0  0.06345  0.39736  0.30606  1.0000
  H   H245      1.0  0.11710  0.43816  0.30106  1.0000
  H   H246      1.0  0.13954  0.44104  0.33508  1.0000
  H   H247      1.0  0.13251  0.40067  0.36508  1.0000
  H   H248      1.0  0.09812  0.39537  0.37980  1.0000
  H   H249      1.0  0.23749  0.37374  0.47170  1.0000
  H   H250      1.0  0.40482  0.51600  0.27538  1.0000
  H   H251      1.0  0.16208  0.42448  0.30360  1.0000
  C   C148      1.0  0.47479  0.50495  0.30569  1.0000
  H   H252      1.0  0.09630  0.43562  0.37175  1.0000
  H   H253      1.0  0.07845  0.43869  0.33607  1.0000
  S   S39       1.0  0.46548  0.58424  0.14833  1.0000
  C   C149      1.0  0.39600  0.48088  0.31011  1.0000
  N   N8        1.0  0.43522  0.49994  0.26357  1.0000
  H   H254      1.0  0.16841  0.35398  0.01612  1.0000
  S   S40       1.0  0.45628  0.33329  0.37302  1.0000
  C   C150      1.0  0.23528  0.39849  0.43117  1.0000
  H   H255      1.0  0.48621  0.45119  0.03199  1.0000
  H   H256      1.0  0.17747  0.37313  0.45648  1.0000
  H   H257      1.0  0.05673  0.33535  0.31749  1.0000
  C   C151      1.0  0.01695  0.33798  0.31029  1.0000
  C   C152      1.0  0.20419  0.65447  0.39037  1.0000
  H   H258      1.0  0.14141  0.48497  0.35995  1.0000
  H   H259      1.0  0.12379  0.48797  0.32335  1.0000
  H   H260      1.0  0.10783  0.48751  0.36239  1.0000
  H   H261      1.0  0.00967  0.35340  0.30042  1.0000
  C   C153      1.0  0.05478  0.34773  0.05678  1.0000
  H   H262      1.0  0.14983  0.36610  0.27034  1.0000
  H   H263      1.0  0.47661  0.43456  0.39434  1.0000
  H   H264      1.0  0.07146  0.34244  0.36810  1.0000
  Fe  Fe22      1.0  0.12489  0.47827  0.99008  1.0000
  C   C154      1.0  0.02033  0.65329  0.14799  1.0000
  H   H265      1.0  0.41513  0.59182  0.11418  1.0000
  H   H266      1.0  0.38713  0.45802  0.17892  1.0000
  S   S41       1.0  0.04034  0.63895  0.09090  1.0000
  H   H267      1.0  0.10358  0.34452  0.34734  1.0000
  H   H268      1.0  0.05476  0.40441  0.10365  1.0000
  H   H269      1.0  0.31132  0.35166  0.31068  1.0000
  H   H270      1.0  0.43300  0.52533  0.30458  1.0000
  H   H271      1.0  0.16454  0.54317  0.03669  1.0000
  H   H272      1.0  0.16878  0.55724  0.45924  1.0000
  H   H273      1.0  0.37873  0.46205  0.29579  1.0000
  H   H274      1.0  0.39984  0.33194  0.21597  1.0000
  H   H275      1.0  0.36362  0.47173  0.34838  1.0000
  H   H276      1.0  0.05906  0.35912  0.10885  1.0000
  H   H277      1.0  0.11395  0.60323  0.43084  1.0000
  H   H278      1.0  0.34578  0.44867  0.09826  1.0000
  H   H279      1.0  0.40245  0.38871  0.27901  1.0000
  C   C155      1.0  0.38430  0.37409  0.29493  1.0000
  H   H280      1.0  0.48475  0.35539  0.05610  1.0000
  H   H281      1.0  0.13325  0.57592  0.44643  1.0000
  H   H282      1.0  0.43997  0.49030  0.19551  1.0000
  C   C156      1.0  0.45208  0.48623  0.27904  1.0000
  C   C157      1.0  0.38915  0.35688  0.31841  1.0000
  H   H283      1.0  0.07116  0.60784  0.44798  1.0000
  S   S42       1.0  0.13640  0.41587  0.46207  1.0000
  H   H284      1.0  0.48012  0.55783  0.28565  1.0000
  H   H285      1.0  0.25793  0.40017  0.38626  1.0000
  C   C158      1.0  0.33308  0.35339  0.31269  1.0000
  H   H286      1.0  0.14077  0.58048  0.14876  1.0000
  H   H287      1.0  0.43612  0.46370  0.28914  1.0000
  H   H288      1.0  0.20122  0.61880  0.44381  1.0000
  H   H289      1.0  0.11610  0.36167  0.07122  1.0000
  H   H290      1.0  0.15463  0.39021  0.32337  1.0000
  C   C159      1.0  0.45618  0.52768  0.24431  1.0000
  C   C160      1.0  0.04680  0.38747  0.08400  1.0000
  C   C161      1.0  0.16016  0.61637  0.18459  1.0000
  C   C162      1.0  0.00591  0.46345  0.39049  1.0000
  H   H291      1.0  0.18510  0.56888  0.41939  1.0000
  H   H292      1.0  0.40818  0.47241  0.32487  1.0000
  H   H293      1.0  0.23418  0.64969  0.17151  1.0000
  C   C163      1.0  0.48984  0.35288  0.03050  1.0000
  H   H294      1.0  0.08845  0.38709  0.08381  1.0000
  C   C164      1.0  0.21384  0.42538  0.48240  1.0000
  C   C165      1.0  0.15501  0.58544  0.43344  1.0000
  H   H295      1.0  0.19187  0.63454  0.00377  1.0000
  C   C166      1.0  0.17844  0.61444  0.45059  1.0000
  H   H296      1.0  0.15176  0.58917  0.40779  1.0000
  C   C167      1.0  0.23831  0.39555  0.46813  1.0000
  H   H297      1.0  0.10720  0.37259  0.03443  1.0000
  H   H298      1.0  0.46793  0.46701  0.33548  1.0000
  C   C168      1.0  0.11884  0.62477  0.44171  1.0000
  C   C169      1.0  0.17653  0.64985  0.41009  1.0000
  C   C170      1.0  0.11131  0.56244  0.02269  1.0000
  H   H299      1.0  0.48287  0.33496  0.25179  1.0000
  H   H300      1.0  0.16218  0.38503  0.02276  1.0000
  C   C171      1.0  0.15613  0.36222  0.03117  1.0000
  C   C172      1.0  0.41790  0.50712  0.28805  1.0000
  H   H301      1.0  0.39661  0.48420  0.23224  1.0000
  H   H302      1.0  0.23023  0.48009  0.45250  1.0000
  C   C173      1.0  0.16451  0.56163  0.43406  1.0000
  H   H303      1.0  0.46513  0.48188  0.26052  1.0000
  H   H304      1.0  0.05612  0.35315  0.28056  1.0000
  H   H305      1.0  0.23569  0.41961  0.42496  1.0000
  H   H306      1.0  0.14401  0.62688  0.48473  1.0000
  H   H307      1.0  0.01202  0.47658  0.41328  1.0000
  C   C174      1.0  0.16041  0.39084  0.27205  1.0000
  H   H308      1.0  0.18507  0.40043  0.27357  1.0000
  H   H309      1.0  0.39590  0.50889  0.34970  1.0000
  C   C175      1.0  0.10780  0.34986  0.39875  1.0000
  C   C176      1.0  0.09198  0.61912  0.46259  1.0000
  C   C177      1.0  0.17981  0.64091  0.15967  1.0000
  C   C178      1.0  0.99860  0.64741  0.17229  1.0000
  H   H310      1.0  0.41033  0.44276  0.16649  1.0000
  H   H311      1.0  0.02482  0.47496  0.37315  1.0000
  H   H312      1.0  0.18097  0.64017  0.34409  1.0000
  H   H313      1.0  0.43912  0.45940  0.21684  1.0000
  C   C179      1.0  0.42564  0.46990  0.20996  1.0000
  C   C180      1.0  0.47054  0.55837  0.26194  1.0000
  C   C181      1.0  0.41264  0.47704  0.24049  1.0000
  H   H314      1.0  0.39867  0.45521  0.25286  1.0000
  H   H315      1.0  0.41089  0.35862  0.32058  1.0000
  H   H316      1.0  0.14634  0.54031  0.42392  1.0000
  H   H317      1.0  0.17320  0.60713  0.19627  1.0000
  H   H318      1.0  0.15653  0.63238  0.39731  1.0000
  C   C182      1.0  0.26088  0.39828  0.41262  1.0000
  C   C183      1.0  0.36575  0.33721  0.33879  1.0000
  H   H319      1.0  0.16482  0.64604  0.14494  1.0000
  H   H320      1.0  0.49440  0.52461  0.29464  1.0000
  C   C184      1.0  0.09630  0.35457  0.36648  1.0000
  H   H321      1.0  0.43903  0.35594  0.01293  1.0000
  H   H322      1.0  0.13268  0.36130  0.39875  1.0000
  H   H323      1.0  0.02244  0.37181  0.08746  1.0000
  H   H324      1.0  0.12047  0.64007  0.42186  1.0000
  C   C185      1.0  0.13324  0.59041  0.16792  1.0000
  H   H325      1.0  0.28280  0.41756  0.41992  1.0000
  Fe  Fe23      1.0  0.46616  0.33417  0.42624  1.0000
  C   C186      1.0  0.24020  0.48201  0.47679  1.0000
  H   H326      1.0  0.21695  0.64650  0.20938  1.0000
  H   H327      1.0  0.26128  0.41280  0.47575  1.0000
  H   H328      1.0  0.20852  0.59470  0.00400  1.0000
  H   H329      1.0  0.18817  0.63015  0.14246  1.0000
  S   S43       1.0  0.16926  0.48098  0.99872  1.0000
  H   H330      1.0  0.14367  0.62782  0.99164  1.0000
  H   H331      1.0  0.16336  0.36348  0.05669  1.0000
  H   H332      1.0  0.47449  0.52507  0.23321  1.0000
  C   C187      1.0  0.43425  0.33373  0.02218  1.0000
  H   H333      1.0  0.46466  0.51267  0.32428  1.0000
  Fe  Fe24      1.0  0.12260  0.48153  0.48408  1.0000
  C   C188      1.0  0.33775  0.33572  0.33567  1.0000
  S   S44       1.0  0.11087  0.51362  0.99576  1.0000
  H   H334      1.0  0.05774  0.36096  0.03438  1.0000
  C   C189      1.0  0.10436  0.35255  0.04782  1.0000
  C   C190      1.0  0.05082  0.35140  0.30682  1.0000
  H   H335      1.0  0.47858  0.35289  0.28762  1.0000
  H   H336      1.0  0.45323  0.56496  0.26605  1.0000
  C   C191      1.0  0.24435  0.45513  0.48345  1.0000
  H   H337      1.0  0.01036  0.33344  0.33614  1.0000
  H   H338      1.0  0.42081  0.33065  0.27864  1.0000
  C   C192      1.0  0.22760  0.66208  0.18869  1.0000
  C   C193      1.0  0.48653  0.48662  0.32302  1.0000
  H   H339      1.0  0.48707  0.58473  0.21756  1.0000
  H   H340      1.0  0.49467  0.37409  0.01803  1.0000
  H   H341      1.0  0.36096  0.33741  0.18741  1.0000
  C   C194      1.0  0.99568  0.34463  0.40713  1.0000
  H   H342      1.0  0.12319  0.34552  0.46856  1.0000
  S   S45       1.0  0.11420  0.66211  0.04040  1.0000
  H   H343      1.0  0.15198  0.66185  0.46839  1.0000
  H   H344      1.0  0.22530  0.66091  0.11167  1.0000
  C   C195      1.0  0.20088  0.65985  0.35465  1.0000
  C   C196      1.0  0.12240  0.34098  0.02824  1.0000
  C   C197      1.0  0.18469  0.37052  0.48106  1.0000
  H   H345      1.0  0.49480  0.48169  0.42348  1.0000
  H   H346      1.0  0.42989  0.33236  0.04860  1.0000
  H   H347      1.0  0.11661  0.33933  0.00221  1.0000
  N   N9        1.0  0.07155  0.33062  0.05394  1.0000
  C   C198      1.0  0.49377  0.44036  0.41343  1.0000
  H   H348      1.0  0.26874  0.66245  0.23266  1.0000
  H   H349      1.0  0.07763  0.33018  0.10573  1.0000
  H   H350      1.0  0.03022  0.33187  0.05906  1.0000
  H   H351      1.0  0.07532  0.34284  0.98879  1.0000
  Fe  Fe25      1.0  0.32409  0.47944  0.74206  1.0000
  S   S46       1.0  0.32799  0.45092  0.70388  1.0000
  S   S47       1.0  0.36016  0.52813  0.74913  1.0000
  Fe  Fe26      1.0  0.26435  0.42799  0.76613  1.0000
  S   S48       1.0  0.26491  0.39625  0.72873  1.0000
  S   S49       1.0  0.22466  0.40716  0.80099  1.0000
  Fe  Fe27      1.0  0.31362  0.41561  0.74270  1.0000
  S   S50       1.0  0.33877  0.38923  0.74782  1.0000
  Fe  Fe28      1.0  0.27907  0.43467  0.69362  1.0000
  S   S51       1.0  0.26738  0.43623  0.63998  1.0000
  S   S52       1.0  0.31201  0.44504  0.78160  1.0000
  S   S53       1.0  0.27609  0.46529  0.73038  1.0000
  H   H352      1.0  0.25497  0.48480  0.66816  1.0000
  H   H353      1.0  0.46730  0.50968  0.70297  1.0000
  C   C199      1.0  0.34103  0.52457  0.62423  1.0000
  C   C200      1.0  0.08585  0.41707  0.83238  1.0000
  Fe  Fe29      1.0  0.14379  0.43941  0.51035  1.0000
  H   H354      1.0  0.12123  0.40448  0.89667  1.0000
  S   S54       1.0  0.15625  0.42445  0.55784  1.0000
  H   H355      1.0  0.17373  0.44785  0.79790  1.0000
  S   S55       1.0  0.11901  0.45794  0.94044  1.0000
  S   S56       1.0  0.05182  0.37313  0.94319  1.0000
  Fe  Fe30      1.0  0.16106  0.45642  0.95121  1.0000
  S   S57       1.0  0.19961  0.47487  0.91494  1.0000
  H   H356      1.0  0.35965  0.53932  0.64052  1.0000
  H   H357      1.0  0.29674  0.38769  0.84015  1.0000
  H   H358      1.0  0.08139  0.42123  0.85771  1.0000
  S   S58       1.0  0.09828  0.43628  0.50800  1.0000
  H   H359      1.0  0.08570  0.43519  0.81787  1.0000
  S   S59       1.0  0.17255  0.63524  0.57512  1.0000
  C   C201      1.0  0.10364  0.35717  0.89301  1.0000
  H   H360      1.0  0.15672  0.38511  0.50712  1.0000
  H   H361      1.0  0.31109  0.50762  0.66485  1.0000
  C   C202      1.0  0.14493  0.47711  0.83275  1.0000
  C   C203      1.0  0.12596  0.54846  0.51542  1.0000
  C   C204      1.0  0.11242  0.56610  0.51949  1.0000
  C   C205      1.0  0.12630  0.59247  0.53804  1.0000
  C   C206      1.0  0.15415  0.60174  0.55233  1.0000
  C   C207      1.0  0.16773  0.58407  0.54834  1.0000
  C   C208      1.0  0.15370  0.55750  0.52995  1.0000
  C   C209      1.0  0.37583  0.35967  0.83419  1.0000
  H   H362      1.0  0.11532  0.60549  0.54145  1.0000
  H   H363      1.0  0.18918  0.59096  0.55952  1.0000
  H   H364      1.0  0.36629  0.50359  0.60776  1.0000
  C   C210      1.0  0.01936  0.36144  0.91770  1.0000
  H   H365      1.0  0.21589  0.65175  0.86902  1.0000
  N   N10       1.0  0.25174  0.35180  0.85154  1.0000
  C   C211      1.0  0.10528  0.38599  0.88088  1.0000
  C   C212      1.0  0.21973  0.42618  0.83402  1.0000
  C   C213      1.0  0.19716  0.40966  0.85689  1.0000
  C   C214      1.0  0.19143  0.42408  0.88260  1.0000
  C   C215      1.0  0.20797  0.45527  0.88532  1.0000
  C   C216      1.0  0.23093  0.47171  0.86280  1.0000
  C   C217      1.0  0.23689  0.45725  0.83734  1.0000
  H   H366      1.0  0.18366  0.38564  0.85439  1.0000
  H   H367      1.0  0.17387  0.41122  0.89991  1.0000
  H   H368      1.0  0.24386  0.49586  0.86478  1.0000
  H   H369      1.0  0.25433  0.47024  0.81992  1.0000
  C   C218      1.0  0.23651  0.43602  0.61978  1.0000
  C   C219      1.0  0.24156  0.45143  0.59015  1.0000
  C   C220      1.0  0.21755  0.44981  0.57194  1.0000
  C   C221      1.0  0.18788  0.43141  0.58216  1.0000
  C   C222      1.0  0.18291  0.41645  0.61203  1.0000
  C   C223      1.0  0.20699  0.41906  0.63092  1.0000
  H   H370      1.0  0.26419  0.46439  0.58096  1.0000
  H   H371      1.0  0.22186  0.46184  0.54941  1.0000
  H   H372      1.0  0.16014  0.40221  0.62036  1.0000
  H   H373      1.0  0.20255  0.40679  0.65339  1.0000
  C   C224      1.0  0.39048  0.54600  0.72163  1.0000
  C   C225      1.0  0.39079  0.53224  0.69267  1.0000
  C   C226      1.0  0.41488  0.54684  0.67098  1.0000
  C   C227      1.0  0.43897  0.57544  0.67792  1.0000
  C   C228      1.0  0.43875  0.58940  0.70687  1.0000
  C   C229      1.0  0.41455  0.57468  0.72866  1.0000
  H   H374      1.0  0.37233  0.51043  0.68678  1.0000
  H   H375      1.0  0.41491  0.53587  0.64867  1.0000
  H   H376      1.0  0.45728  0.61138  0.71254  1.0000
  H   H377      1.0  0.41449  0.58555  0.75102  1.0000
  C   C230      1.0  0.35361  0.37898  0.78157  1.0000
  C   C231      1.0  0.35475  0.38996  0.81282  1.0000
  H   H378      1.0  0.36499  0.47928  0.82443  1.0000
  H   H379      1.0  0.46131  0.46863  0.73379  1.0000
  H   H380      1.0  0.34455  0.57657  0.62539  1.0000
  H   H381      1.0  0.15275  0.47969  0.80735  1.0000
  H   H382      1.0  0.34700  0.40569  0.81700  1.0000
  C   C232      1.0  0.00856  0.33420  0.90117  1.0000
  H   H383      1.0  0.32666  0.48227  0.59926  1.0000
  C   C233      1.0  0.22284  0.39693  0.52393  1.0000
  Fe  Fe31      1.0  0.09433  0.41334  0.96527  1.0000
  C   C234      1.0  0.02959  0.38862  0.82322  1.0000
  H   H384      1.0  0.34008  0.48363  0.63985  1.0000
  C   C235      1.0  0.22348  0.36871  0.53584  1.0000
  H   H385      1.0  0.29288  0.53394  0.69325  1.0000
  H   H386      1.0  0.22543  0.48360  0.49533  1.0000
  H   H387      1.0  0.21291  0.47782  0.70187  1.0000
  C   C236      1.0  0.37570  0.34957  0.80272  1.0000
  H   H388      1.0  0.39109  0.59865  0.65828  1.0000
  H   H389      1.0  0.23025  0.60674  0.96707  1.0000
  H   H390      1.0  0.01091  0.39780  0.92707  1.0000
  H   H391      1.0  0.19067  0.50310  0.85090  1.0000
  H   H392      1.0  0.34481  0.53680  0.60120  1.0000
  H   H393      1.0  0.45322  0.42015  0.75626  1.0000
  H   H394      1.0  0.32796  0.43199  0.87206  1.0000
  H   H395      1.0  0.22701  0.51763  0.70366  1.0000
  H   H396      1.0  0.29301  0.54967  0.52819  1.0000
  C   C237      1.0  0.16242  0.42792  0.75101  1.0000
  H   H397      1.0  0.19895  0.42773  0.50028  1.0000
  H   H398      1.0  0.31088  0.44845  0.89651  1.0000
  H   H399      1.0  0.29045  0.36052  0.79749  1.0000
  H   H400      1.0  0.22641  0.35980  0.88825  1.0000
  H   H401      1.0  0.16432  0.54405  0.52701  1.0000
  N   N11       1.0  0.11605  0.41903  0.82984  1.0000
  H   H402      1.0  0.12440  0.47903  0.83355  1.0000
  N   N12       1.0  0.18251  0.65295  0.96138  1.0000
  H   H403      1.0  0.19809  0.56960  0.97005  1.0000
  H   H404      1.0  0.24232  0.36739  0.52440  1.0000
  H   H405      1.0  0.12080  0.43705  0.78138  1.0000
  H   H406      1.0  0.32196  0.56662  0.57871  1.0000
  C   C238      1.0  0.01772  0.62651  0.66808  1.0000
  H   H407      1.0  0.02606  0.39399  0.84827  1.0000
  H   H408      1.0  0.27612  0.55260  0.67333  1.0000
  H   H409      1.0  0.24947  0.39006  0.57933  1.0000
  C   C239      1.0  0.00324  0.37685  0.91441  1.0000
  H   H410      1.0  0.08282  0.38353  0.88397  1.0000
  H   H411      1.0  0.46850  0.48743  0.77119  1.0000
  H   H412      1.0  0.17749  0.63581  0.91254  1.0000
  C   C240      1.0  0.15645  0.42631  0.78736  1.0000
  H   H413      1.0  0.12576  0.35849  0.89054  1.0000
  C   C241      1.0  0.34361  0.49678  0.61739  1.0000
  H   H414      1.0  0.08898  0.60442  0.94445  1.0000
  C   C242      1.0  0.14901  0.63354  0.96564  1.0000
  H   H415      1.0  0.29279  0.49622  0.62726  1.0000
  H   H416      1.0  0.09087  0.55912  0.50853  1.0000
  C   C243      1.0  0.15879  0.36486  0.50454  1.0000
  H   H417      1.0  0.21677  0.36338  0.84795  1.0000
  C   C244      1.0  0.32832  0.57104  0.64546  1.0000
  C   C245      1.0  0.44700  0.42689  0.77922  1.0000
  H   H418      1.0  0.26818  0.39430  0.82708  1.0000
  C   C246      1.0  0.31039  0.51602  0.64019  1.0000
  H   H419      1.0  0.01013  0.36655  0.81661  1.0000
  H   H420      1.0  0.30731  0.36963  0.88969  1.0000
  C   C247      1.0  0.36561  0.38024  0.83886  1.0000
  H   H421      1.0  0.16251  0.35836  0.52893  1.0000
  C   C248      1.0  0.12415  0.42009  0.79456  1.0000
  H   H422      1.0  0.34715  0.55704  0.68565  1.0000
  C   C249      1.0  0.12875  0.33960  0.49236  1.0000
  H   H423      1.0  0.43247  0.40630  0.79339  1.0000
  H   H424      1.0  0.23625  0.50310  0.65065  1.0000
  H   H425      1.0  0.49210  0.57940  0.71254  1.0000
  H   H426      1.0  0.30486  0.52642  0.57327  1.0000
  H   H427      1.0  0.44765  0.66063  0.70606  1.0000
  H   H428      1.0  0.13161  0.44666  0.87273  1.0000
  H   H429      1.0  0.30679  0.44745  0.85330  1.0000
  S   S60       1.0  0.13659  0.41035  0.97339  1.0000
  H   H430      1.0  0.08648  0.33757  0.87931  1.0000
  H   H431      1.0  0.13273  0.65238  0.92786  1.0000
  C   C250      1.0  0.28108  0.54593  0.55163  1.0000
  S   S61       1.0  0.38557  0.34532  0.86880  1.0000
  C   C251      1.0  0.30058  0.54502  0.57898  1.0000
  H   H432      1.0  0.36419  0.35063  0.75267  1.0000
  H   H433      1.0  0.28042  0.39360  0.90001  1.0000
  H   H434      1.0  0.30589  0.34945  0.85410  1.0000
  C   C252      1.0  0.27936  0.40462  0.87741  1.0000
  H   H435      1.0  0.14636  0.40649  0.73914  1.0000
  C   C253      1.0  0.48509  0.54119  0.74181  1.0000
  H   H436      1.0  0.05537  0.36813  0.83629  1.0000
  H   H437      1.0  0.32112  0.58814  0.64363  1.0000
  H   H438      1.0  0.37702  0.62394  0.66721  1.0000
  H   H439      1.0  0.18795  0.60445  0.93761  1.0000
  C   C254      1.0  0.22806  0.36986  0.57245  1.0000
  H   H440      1.0  0.27625  0.56447  0.55545  1.0000
  C   C255      1.0  0.30807  0.43494  0.87451  1.0000
  H   H441      1.0  0.18549  0.43199  0.74672  1.0000
  H   H442      1.0  0.25510  0.45860  0.50745  1.0000
  C   C256      1.0  0.25109  0.50406  0.67056  1.0000
  C   C257      1.0  0.18703  0.60487  0.96435  1.0000
  H   H443      1.0  0.33374  0.58179  0.69723  1.0000
  C   C258      1.0  0.28134  0.53413  0.67057  1.0000
  C   C259      1.0  0.12957  0.64701  0.95401  1.0000
  C   C260      1.0  0.18911  0.65755  0.92562  1.0000
  H   H444      1.0  0.37826  0.45287  0.66110  1.0000
  C   C261      1.0  0.22308  0.34987  0.86367  1.0000
  C   C262      1.0  0.27465  0.38457  0.84746  1.0000
  H   H445      1.0  0.26040  0.40910  0.87960  1.0000
  H   H446      1.0  0.16381  0.58883  0.97228  1.0000
  H   H447      1.0  0.39307  0.42917  0.64908  1.0000
  H   H448      1.0  0.14050  0.61190  0.95263  1.0000
  H   H449      1.0  0.16045  0.44722  0.84932  1.0000
  H   H450      1.0  0.13818  0.39469  0.84448  1.0000
  H   H451      1.0  0.06122  0.38223  0.79555  1.0000
  H   H452      1.0  0.02415  0.61907  0.68950  1.0000
  Fe  Fe32      1.0  0.48012  0.35402  0.91231  1.0000
  H   H453      1.0  0.20515  0.64675  0.50651  1.0000
  C   C263      1.0  0.03894  0.64072  0.64289  1.0000
  H   H454      1.0  0.23534  0.34716  0.80260  1.0000
  H   H455      1.0  0.08285  0.63543  0.95230  1.0000
  C   C264      1.0  0.36465  0.35914  0.77670  1.0000
  C   C265      1.0  0.34565  0.57686  0.67785  1.0000
  H   H456      1.0  0.10868  0.39842  0.78266  1.0000
  H   H457      1.0  0.39118  0.51682  0.81144  1.0000
  H   H458      1.0  0.17302  0.52485  0.84144  1.0000
  H   H459      1.0  0.24539  0.41622  0.52930  1.0000
  H   H460      1.0  0.16239  0.50225  0.87759  1.0000
  H   H461      1.0  0.10124  0.37156  0.83076  1.0000
  C   C266      1.0  0.37744  0.60361  0.67539  1.0000
  H   H462      1.0  0.37036  0.42022  0.68499  1.0000
  N   N13       1.0  0.21497  0.39708  0.48886  1.0000
  H   H463      1.0  0.22155  0.64977  0.97560  1.0000
  C   C267      1.0  0.28425  0.53913  0.61190  1.0000
  H   H464      1.0  0.25957  0.52437  0.55019  1.0000
  H   H465      1.0  0.20716  0.40012  0.53971  1.0000
  C   C268      1.0  0.16922  0.50337  0.85188  1.0000
  H   H466      1.0  0.27592  0.55530  0.61456  1.0000
  C   C269      1.0  0.13877  0.44682  0.84734  1.0000
  C   C270      1.0  0.11550  0.39216  0.84507  1.0000
  H   H467      1.0  0.15985  0.40818  0.79717  1.0000
  H   H468      1.0  0.24710  0.50164  0.72335  1.0000
  H   H469      1.0  0.38832  0.60820  0.69948  1.0000
  H   H470      1.0  0.22886  0.34971  0.58056  1.0000
  H   H471      1.0  0.16054  0.44656  0.73991  1.0000
  C   C271      1.0  0.24509  0.33684  0.81879  1.0000
  N   N14       1.0  0.30165  0.53999  0.64168  1.0000
  S   S62       1.0  0.46902  0.59206  0.65004  1.0000
  H   H472      1.0  0.26409  0.51665  0.60898  1.0000
  N   N15       1.0  0.43501  0.49020  0.74222  1.0000
  C   C272      1.0  0.40890  0.47130  0.72020  1.0000
  C   C273      1.0  0.42492  0.50202  0.77024  1.0000
  C   C274      1.0  0.45770  0.51685  0.72281  1.0000
  C   C275      1.0  0.45011  0.47334  0.75417  1.0000
  C   C276      1.0  0.43005  0.44363  0.77239  1.0000
  C   C277      1.0  0.41590  0.45792  0.69002  1.0000
  C   C278      1.0  0.23358  0.50015  0.70183  1.0000
  C   C279      1.0  0.39280  0.48166  0.78367  1.0000
  C   C280      1.0  0.38810  0.49409  0.81534  1.0000
  H   H473      1.0  0.13854  0.65983  0.72599  1.0000
  C   C281      1.0  0.38760  0.43891  0.67018  1.0000
  H   H474      1.0  0.39873  0.48472  0.71166  1.0000
  H   H475      1.0  0.39059  0.45205  0.73329  1.0000
  H   H476      1.0  0.44094  0.50825  0.79075  1.0000
  H   H477      1.0  0.42524  0.52312  0.76317  1.0000
  H   H478      1.0  0.44654  0.52812  0.71092  1.0000
  C   C282      1.0  0.05851  0.38720  0.82101  1.0000
  H   H479      1.0  0.20930  0.37036  0.58525  1.0000
  H   H480      1.0  0.46754  0.44101  0.79356  1.0000
  H   H481      1.0  0.40986  0.42836  0.75831  1.0000
  H   H482      1.0  0.42326  0.44830  0.79617  1.0000
  H   H483      1.0  0.43212  0.47575  0.67371  1.0000
  H   H484      1.0  0.42501  0.44328  0.69723  1.0000
  H   H485      1.0  0.36573  0.38840  0.86299  1.0000
  H   H486      1.0  0.37625  0.48083  0.76593  1.0000
  H   H487      1.0  0.38762  0.45840  0.78808  1.0000
  H   H488      1.0  0.40406  0.49519  0.83405  1.0000
  C   C283      1.0  0.29550  0.34729  0.87798  1.0000
  H   H489      1.0  0.06128  0.64393  0.64509  1.0000
  S   S63       1.0  0.46474  0.34842  0.86052  1.0000
  H   H490      1.0  0.47812  0.54966  0.76282  1.0000
  C   C284      1.0  0.09624  0.62484  0.95934  1.0000
  H   H491      1.0  0.03038  0.40586  0.80648  1.0000
  C   C285      1.0  0.00175  0.64594  0.61276  1.0000
  C   C286      1.0  0.19681  0.63675  0.97730  1.0000
  H   H492      1.0  0.42884  0.65161  0.74463  1.0000
  H   H493      1.0  0.20233  0.34784  0.53026  1.0000
  C   C287      1.0  0.20729  0.59339  0.97722  1.0000
  H   H494      1.0  0.09719  0.35391  0.91897  1.0000
  C   C288      1.0  0.03120  0.65077  0.61499  1.0000
  H   H495      1.0  0.11077  0.33603  0.50975  1.0000
  H   H496      1.0  0.16278  0.33298  0.87212  1.0000
  H   H497      1.0  0.12949  0.65449  0.68328  1.0000
  C   C289      1.0  0.27165  0.33738  0.80061  1.0000
  S   S64       1.0  0.10764  0.51593  0.49116  1.0000
  H   H498      1.0  0.25449  0.33651  0.75216  1.0000
  S   S65       1.0  0.43332  0.33450  0.93167  1.0000
  H   H499      1.0  0.38331  0.33370  0.79856  1.0000
  S   S66       1.0  0.16818  0.48599  0.48908  1.0000
  H   H500      1.0  0.25409  0.33741  0.90037  1.0000
  C   C290      1.0  0.26139  0.33594  0.87538  1.0000
  H   H501      1.0  0.32619  0.33529  0.90025  1.0000
  H   H502      1.0  0.09160  0.61820  0.98519  1.0000
  H   H503      1.0  0.99530  0.65346  0.59141  1.0000
  S   S67       1.0  0.46922  0.82933  0.40786  1.0000
  Fe  Fe33      1.0  0.36140  0.86919  0.30784  1.0000
  S   S68       1.0  0.34284  0.89463  0.33411  1.0000
  S   S69       1.0  0.41048  0.88217  0.31213  1.0000
  Fe  Fe34      1.0  0.30381  0.83377  0.26922  1.0000
  S   S70       1.0  0.28133  0.85672  0.29326  1.0000
  S   S71       1.0  0.28740  0.79959  0.22850  1.0000
  Fe  Fe35      1.0  0.32589  0.89959  0.28547  1.0000
  S   S72       1.0  0.32949  0.94382  0.26707  1.0000
  Fe  Fe36      1.0  0.30031  0.84965  0.33971  1.0000
  S   S73       1.0  0.27975  0.83797  0.39129  1.0000
  S   S74       1.0  0.34672  0.87656  0.25918  1.0000
  S   S75       1.0  0.32040  0.82429  0.31580  1.0000
  Fe  Fe37      1.0  0.15130  0.72107  0.10752  1.0000
  S   S76       1.0  0.11760  0.72094  0.07243  1.0000
  S   S77       1.0  0.16819  0.75641  0.14722  1.0000
  C   C291      1.0  0.17372  0.79729  0.37873  1.0000
  Fe  Fe38      1.0  0.14412  0.71224  0.03427  1.0000
  H   H504      1.0  0.47960  0.97406  0.19317  1.0000
  C   C292      1.0  0.46129  0.75454  0.36894  1.0000
  H   H505      1.0  0.22581  0.89567  0.24050  1.0000
  S   S78       1.0  0.17880  0.71504  0.06914  1.0000
  H   H506      1.0  0.14955  0.76460  0.43480  1.0000
  H   H507      1.0  0.22453  0.86669  0.26611  1.0000
  C   C293      1.0  0.25114  0.80572  0.41215  1.0000
  C   C294      1.0  0.24837  0.80715  0.44596  1.0000
  H   H508      1.0  0.45939  0.71967  0.24917  1.0000
  C   C295      1.0  0.20476  0.75673  0.44763  1.0000
  C   C296      1.0  0.20776  0.75509  0.41389  1.0000
  C   C297      1.0  0.23085  0.77924  0.39632  1.0000
  N   N16       1.0  0.14339  0.79471  0.46655  1.0000
  C   C298      1.0  0.14367  0.82415  0.46324  1.0000
  H   H509      1.0  0.19182  0.73515  0.40110  1.0000
  H   H510      1.0  0.23248  0.77762  0.37039  1.0000
  C   C299      1.0  0.25461  0.78888  0.20574  1.0000
  C   C300      1.0  0.25040  0.77289  0.17689  1.0000
  C   C301      1.0  0.22409  0.76294  0.15861  1.0000
  C   C302      1.0  0.20180  0.76894  0.16908  1.0000
  C   C303      1.0  0.20626  0.78544  0.19762  1.0000
  C   C304      1.0  0.23249  0.79523  0.21603  1.0000
  H   H511      1.0  0.26764  0.76827  0.16865  1.0000
  H   H512      1.0  0.22112  0.75096  0.13621  1.0000
  H   H513      1.0  0.18907  0.79017  0.20583  1.0000
  H   H514      1.0  0.23531  0.80713  0.23845  1.0000
  H   H515      1.0  0.30356  0.85015  0.14419  1.0000
  C   C305      1.0  0.35402  0.97406  0.24060  1.0000
  C   C306      1.0  0.37465  0.97239  0.21971  1.0000
  H   H516      1.0  0.24955  0.84045  0.16460  1.0000
  H   H517      1.0  0.37685  0.95257  0.21995  1.0000
  C   C307      1.0  0.45313  0.84402  0.38091  1.0000
  C   C308      1.0  0.47084  0.87021  0.36332  1.0000
  C   C309      1.0  0.45740  0.88145  0.34221  1.0000
  C   C310      1.0  0.42612  0.86686  0.33878  1.0000
  C   C311      1.0  0.40835  0.84066  0.35635  1.0000
  C   C312      1.0  0.42182  0.82921  0.37726  1.0000
  C   C313      1.0  0.47542  0.79152  0.32260  1.0000
  H   H518      1.0  0.47132  0.90179  0.32874  1.0000
  H   H519      1.0  0.38430  0.82909  0.35336  1.0000
  H   H520      1.0  0.40799  0.80878  0.39059  1.0000
  H   H521      1.0  0.44665  0.82206  0.27078  1.0000
  H   H522      1.0  0.29883  0.69979  0.22406  1.0000
  H   H523      1.0  0.18005  0.72433  0.22225  1.0000
  H   H524      1.0  0.41258  0.91167  0.43926  1.0000
  N   N17       1.0  0.35910  0.85723  0.44562  1.0000
  C   C314      1.0  0.37296  0.87471  0.41496  1.0000
  C   C315      1.0  0.33489  0.82540  0.43793  1.0000
  H   H525      1.0  0.14246  0.70710  0.20670  1.0000
  H   H526      1.0  0.33536  0.85082  0.18917  1.0000
  H   H527      1.0  0.39570  0.87948  0.47971  1.0000
  H   H528      1.0  0.48708  0.86270  0.29204  1.0000
  C   C316      1.0  0.33846  0.81092  0.40662  1.0000
  C   C317      1.0  0.31345  0.77834  0.40349  1.0000
  C   C318      1.0  0.44361  0.80543  0.28983  1.0000
  C   C319      1.0  0.41549  0.92158  0.38887  1.0000
  H   H529      1.0  0.35510  0.87384  0.39901  1.0000
  H   H530      1.0  0.38352  0.86427  0.40055  1.0000
  C   C320      1.0  0.47868  0.73987  0.23842  1.0000
  H   H531      1.0  0.31278  0.82411  0.43515  1.0000
  N   N18       1.0  0.28015  0.88836  0.16809  1.0000
  C   C321      1.0  0.16032  0.70264  0.21527  1.0000
  H   H532      1.0  0.00274  0.66458  0.18990  1.0000
  H   H533      1.0  0.20896  0.78624  0.00508  1.0000
  H   H534      1.0  0.15440  0.79622  0.36561  1.0000
  S   S79       1.0  0.17354  0.72639  0.46802  1.0000
  H   H535      1.0  0.44392  0.97262  0.19817  1.0000
  H   H536      1.0  0.36009  0.81132  0.40596  1.0000
  H   H537      1.0  0.33708  0.82304  0.38508  1.0000
  C   C322      1.0  0.21976  0.69119  0.14554  1.0000
  H   H538      1.0  0.21358  0.70587  0.20507  1.0000
  H   H539      1.0  0.31410  0.76476  0.42400  1.0000
  H   H540      1.0  0.29120  0.77698  0.40291  1.0000
  H   H541      1.0  0.47959  0.87620  0.01491  1.0000
  H   H542      1.0  0.44929  0.95255  0.16557  1.0000
  C   C323      1.0  0.25632  0.68931  0.20249  1.0000
  H   H543      1.0  0.42919  0.91087  0.38380  1.0000
  H   H544      1.0  0.40094  0.91837  0.36775  1.0000
  H   H545      1.0  0.43092  0.94597  0.39215  1.0000
  H   H546      1.0  0.26773  0.70744  0.18440  1.0000
  H   H547      1.0  0.49518  0.76138  0.28407  1.0000
  H   H548      1.0  0.40686  0.99389  0.18108  1.0000
  H   H549      1.0  0.19594  0.81125  0.42431  1.0000
  C   C324      1.0  0.33317  0.96836  0.13214  1.0000
  H   H550      1.0  0.47843  0.80912  0.34021  1.0000
  C   C325      1.0  0.41163  0.77868  0.28356  1.0000
  C   C326      1.0  0.38757  0.78685  0.29147  1.0000
  C   C327      1.0  0.39180  0.99602  0.19768  1.0000
  H   H551      1.0  0.22497  0.67435  0.39905  1.0000
  N   N19       1.0  0.46940  0.79911  0.28917  1.0000
  C   C328      1.0  0.23879  0.88510  0.24914  1.0000
  C   C329      1.0  0.17490  0.80809  0.41341  1.0000
  C   C330      1.0  0.40443  0.84855  0.45283  1.0000
  S   S80       1.0  0.12392  0.67175  0.11875  1.0000
  H   H552      1.0  0.22514  0.68899  0.01523  1.0000
  H   H553      1.0  0.31970  0.89875  0.19621  1.0000
  H   H554      1.0  0.23482  0.71413  0.15480  1.0000
  H   H555      1.0  0.33169  0.81008  0.45844  1.0000
  H   H556      1.0  0.22420  0.67001  0.45153  1.0000
  H   H557      1.0  0.40932  0.77242  0.25756  1.0000
  H   H558      1.0  0.40673  0.75863  0.29790  1.0000
  H   H559      1.0  0.36532  0.76869  0.28332  1.0000
  H   H560      1.0  0.38647  0.78951  0.31796  1.0000
  H   H561      1.0  0.39233  0.80800  0.27920  1.0000
  H   H562      1.0  0.34125  0.96141  0.11071  1.0000
  H   H563      1.0  0.26091  0.72906  0.10018  1.0000
  H   H564      1.0  0.12823  0.86882  0.46168  1.0000
  H   H565      1.0  0.36136  0.89020  0.18199  1.0000
  H   H566      1.0  0.23452  0.80866  0.11422  1.0000
  H   H567      1.0  0.20226  0.69294  0.13144  1.0000
  C   C331      1.0  0.46038  0.97337  0.18021  1.0000
  H   H568      1.0  0.25364  0.87463  0.10182  1.0000
  H   H569      1.0  0.22819  0.70185  0.07814  1.0000
  H   H570      1.0  0.17508  0.67070  0.40776  1.0000
  C   C332      1.0  0.45082  0.76167  0.33734  1.0000
  C   C333      1.0  0.46345  0.77479  0.26495  1.0000
  H   H571      1.0  0.26373  0.82741  0.45858  1.0000
  H   H572      1.0  0.38549  0.92139  0.42499  1.0000
  H   H573      1.0  0.39233  0.82499  0.44459  1.0000
  H   H574      1.0  0.27784  0.85938  0.10812  1.0000
  C   C334      1.0  0.26824  0.89771  0.19659  1.0000
  C   C335      1.0  0.22568  0.78281  0.46361  1.0000
  H   H575      1.0  0.19858  0.68007  0.35169  1.0000
  H   H576      1.0  0.44330  0.73299  0.37889  1.0000
  C   C336      1.0  0.24809  0.87251  0.22075  1.0000
  H   H577      1.0  0.33967  0.93997  0.16500  1.0000
  H   H578      1.0  0.20409  0.68980  0.45468  1.0000
  H   H579      1.0  0.43071  0.76344  0.34316  1.0000
  H   H580      1.0  0.48156  0.75252  0.36480  1.0000
  H   H581      1.0  0.17634  0.83027  0.41203  1.0000
  C   C337      1.0  0.16847  0.68771  0.18825  1.0000
  C   C338      1.0  0.25618  0.85733  0.11524  1.0000
  H   H582      1.0  0.15189  0.68782  0.23681  1.0000
  C   C339      1.0  0.32109  0.94383  0.15799  1.0000
  C   C340      1.0  0.30277  0.88037  0.18078  1.0000
  H   H583      1.0  0.44337  0.81617  0.31316  1.0000
  H   H584      1.0  0.47227  0.74430  0.21430  1.0000
  H   H585      1.0  0.20887  0.82296  0.11129  1.0000
  H   H586      1.0  0.32836  0.87441  0.44611  1.0000
  H   H587      1.0  0.13438  0.82546  0.43933  1.0000
  C   C341      1.0  0.20314  0.66825  0.46094  1.0000
  H   H588      1.0  0.26249  0.70078  0.07583  1.0000
  C   C342      1.0  0.39677  0.90830  0.41946  1.0000
  H   H589      1.0  0.22729  0.85503  0.20909  1.0000
  C   C343      1.0  0.48870  0.76693  0.26063  1.0000
  H   H590      1.0  0.31468  0.95266  0.17914  1.0000
  C   C344      1.0  0.31937  0.87209  0.15520  1.0000
  C   C345      1.0  0.24806  0.70535  0.09211  1.0000
  H   H591      1.0  0.23177  0.82529  0.07713  1.0000
  C   C346      1.0  0.14724  0.78496  0.43323  1.0000
  H   H592      1.0  0.30219  0.90897  0.12262  1.0000
  C   C347      1.0  0.42763  0.85116  0.47757  1.0000
  H   H593      1.0  0.17756  0.67963  0.99917  1.0000
  H   H594      1.0  0.12681  0.77854  0.41844  1.0000
  H   H595      1.0  0.28703  0.91516  0.21114  1.0000
  H   H596      1.0  0.25501  0.90816  0.18805  1.0000
  H   H597      1.0  0.35228  0.98915  0.14203  1.0000
  H   H598      1.0  0.41704  0.86341  0.43231  1.0000
  H   H599      1.0  0.25886  0.90199  0.26252  1.0000
  H   H600      1.0  0.26015  0.86162  0.23075  1.0000
  H   H601      1.0  0.17169  0.77479  0.37850  1.0000
  H   H602      1.0  0.16719  0.84321  0.46347  1.0000
  H   H603      1.0  0.46643  0.77233  0.38711  1.0000
  H   H604      1.0  0.31636  0.76881  0.38059  1.0000
  H   H605      1.0  0.17438  0.70214  0.16651  1.0000
  C   C348      1.0  0.38227  0.85722  0.46798  1.0000
  C   C349      1.0  0.34431  0.87238  0.46282  1.0000
  H   H606      1.0  0.25066  0.69877  0.22372  1.0000
  C   C350      1.0  0.23508  0.73249  0.99821  1.0000
  C   C351      1.0  0.25405  0.86151  0.15219  1.0000
  H   H607      1.0  0.04068  0.67482  0.14703  1.0000
  H   H608      1.0  0.45908  0.78130  0.24071  1.0000
  H   H609      1.0  0.23306  0.86262  0.15495  1.0000
  C   C352      1.0  0.34455  0.86881  0.17059  1.0000
  H   H610      1.0  0.10511  0.72960  0.45444  1.0000
  H   H611      1.0  0.19468  0.81313  0.36579  1.0000
  H   H612      1.0  0.18865  0.67000  0.22109  1.0000
  C   C353      1.0  0.29411  0.91457  0.14495  1.0000
  H   H613      1.0  0.44279  0.75359  0.27098  1.0000
  C   C354      1.0  0.23127  0.82671  0.10390  1.0000
  H   H614      1.0  0.27676  0.92003  0.13674  1.0000
  H   H615      1.0  0.29182  0.86067  0.19720  1.0000
  H   H616      1.0  0.35599  0.86271  0.15179  1.0000
  H   H617      1.0  0.32965  0.88937  0.13607  1.0000
  H   H618      1.0  0.25889  0.68662  0.13253  1.0000
  H   H619      1.0  0.36115  0.89566  0.46981  1.0000
  C   C355      1.0  0.19496  0.68325  0.19828  1.0000
  H   H620      1.0  0.44462  0.74248  0.32095  1.0000
  H   H621      1.0  0.21853  0.73490  0.01321  1.0000
  C   C356      1.0  0.23829  0.68406  0.12105  1.0000
  H   H622      1.0  0.25688  0.74315  0.01109  1.0000
  H   H623      1.0  0.31556  0.97356  0.12461  1.0000
  H   H624      1.0  0.19086  0.81521  0.47624  1.0000
  Fe  Fe39      1.0  0.09120  0.67102  0.08240  1.0000
  N   N20       1.0  0.20553  0.66933  0.17313  1.0000
  C   C357      1.0  0.11349  0.77078  0.47969  1.0000
  C   C358      1.0  0.22466  0.69952  0.99191  1.0000
  H   H625      1.0  0.09501  0.77042  0.46533  1.0000
  H   H626      1.0  0.44298  0.84448  0.46615  1.0000
  H   H627      1.0  0.49491  0.88205  0.36621  1.0000
  Fe  Fe40      1.0  0.14792  0.66548  0.07651  1.0000
  C   C359      1.0  0.27881  0.68006  0.21372  1.0000
  H   H628      1.0  0.28620  0.67153  0.19303  1.0000
  C   C360      1.0  0.10772  0.73818  0.47956  1.0000
  H   H629      1.0  0.14809  0.66604  0.18293  1.0000
  H   H630      1.0  0.10083  0.81648  0.48331  1.0000
  H   H631      1.0  0.22110  0.66348  0.34112  1.0000
  C   C361      1.0  0.13260  0.86343  0.48638  1.0000
  H   H632      1.0  0.05924  0.71654  0.48643  1.0000
  H   H633      1.0  0.44127  0.87464  0.48609  1.0000
  H   H634      1.0  0.49425  0.75853  0.15563  1.0000
  S   S81       1.0  0.46618  0.82966  0.91194  1.0000
  Fe  Fe41      1.0  0.35042  0.86324  0.82073  1.0000
  S   S82       1.0  0.33533  0.89001  0.84977  1.0000
  S   S83       1.0  0.40007  0.87712  0.81900  1.0000
  Fe  Fe42      1.0  0.28944  0.82948  0.78704  1.0000
  S   S84       1.0  0.27088  0.85519  0.81323  1.0000
  S   S85       1.0  0.26347  0.78849  0.75510  1.0000
  Fe  Fe43      1.0  0.31633  0.89617  0.80320  1.0000
  S   S86       1.0  0.32754  0.94497  0.79399  1.0000
  Fe  Fe44      1.0  0.29136  0.84702  0.85766  1.0000
  S   S87       1.0  0.27112  0.83773  0.90930  1.0000
  S   S88       1.0  0.33287  0.87071  0.77384  1.0000
  S   S89       1.0  0.30831  0.81982  0.83186  1.0000
  Fe  Fe45      1.0  0.17022  0.73139  0.59440  1.0000
  S   S90       1.0  0.13849  0.73198  0.55745  1.0000
  S   S91       1.0  0.19253  0.77404  0.62437  1.0000
  H   H635      1.0  0.17367  0.83203  0.52268  1.0000
  Fe  Fe46      1.0  0.15995  0.71495  0.52194  1.0000
  H   H636      1.0  0.35369  0.90711  0.69795  1.0000
  Fe  Fe47      1.0  0.10703  0.68438  0.57345  1.0000
  H   H637      1.0  0.42689  0.73447  0.61937  1.0000
  S   S92       1.0  0.19324  0.71712  0.55818  1.0000
  S   S93       1.0  0.12507  0.66709  0.53401  1.0000
  H   H638      1.0  0.05480  0.67323  0.71046  1.0000
  C   C362      1.0  0.24019  0.80651  0.92912  1.0000
  C   C363      1.0  0.23625  0.80795  0.96272  1.0000
  H   H639      1.0  0.48183  0.71395  0.69222  1.0000
  C   C364      1.0  0.19009  0.75932  0.96256  1.0000
  C   C365      1.0  0.19410  0.75780  0.92900  1.0000
  C   C366      1.0  0.21904  0.78098  0.91247  1.0000
  H   H640      1.0  0.48418  0.92271  0.77591  1.0000
  H   H641      1.0  0.44587  0.98239  0.81228  1.0000
  H   H642      1.0  0.17770  0.73855  0.91562  1.0000
  H   H643      1.0  0.22160  0.77927  0.88673  1.0000
  C   C367      1.0  0.24519  0.78575  0.71801  1.0000
  C   C368      1.0  0.24139  0.80907  0.70617  1.0000
  C   C369      1.0  0.22536  0.80523  0.67730  1.0000
  C   C370      1.0  0.21330  0.77822  0.65992  1.0000
  C   C371      1.0  0.21741  0.75506  0.67158  1.0000
  C   C372      1.0  0.23306  0.75875  0.70063  1.0000
  H   H644      1.0  0.25049  0.82989  0.71943  1.0000
  H   H645      1.0  0.22230  0.82327  0.66840  1.0000
  H   H646      1.0  0.20849  0.73427  0.65828  1.0000
  H   H647      1.0  0.23588  0.74059  0.70968  1.0000
  H   H648      1.0  0.24139  0.69885  0.97569  1.0000
  C   C373      1.0  0.34403  0.97048  0.76076  1.0000
  C   C374      1.0  0.34445  0.96080  0.72924  1.0000
  H   H649      1.0  0.09244  0.73596  0.60706  1.0000
  H   H650      1.0  0.33469  0.93712  0.72450  1.0000
  C   C375      1.0  0.44773  0.84195  0.88501  1.0000
  C   C376      1.0  0.46233  0.85984  0.85811  1.0000
  C   C377      1.0  0.44730  0.87015  0.83800  1.0000
  C   C378      1.0  0.41743  0.86242  0.84429  1.0000
  C   C379      1.0  0.40270  0.84427  0.87096  1.0000
  C   C380      1.0  0.41784  0.83419  0.89127  1.0000
  H   H651      1.0  0.09924  0.67860  0.69310  1.0000
  H   H652      1.0  0.45884  0.88409  0.81741  1.0000
  H   H653      1.0  0.37972  0.83818  0.87611  1.0000
  H   H654      1.0  0.40633  0.82031  0.91197  1.0000
  H   H655      1.0  0.23459  0.66311  0.92553  1.0000
  C   C381      1.0  0.08584  0.72106  0.71847  1.0000
  H   H656      1.0  0.43125  0.76473  0.64493  1.0000
  H   H657      1.0  0.18041  0.81522  0.85751  1.0000
  H   H658      1.0  0.21482  0.68640  0.86751  1.0000
  H   H659      1.0  0.08041  0.72395  0.52355  1.0000
  H   H660      1.0  0.08485  0.74215  0.71743  1.0000
  H   H661      1.0  0.41190  0.97707  0.85628  1.0000
  H   H662      1.0  0.23429  0.93042  0.76492  1.0000
  H   H663      1.0  0.00808  0.67528  0.71085  1.0000
  H   H664      1.0  0.18600  0.66782  0.51003  1.0000
  C   C382      1.0  0.31143  0.87304  0.50837  1.0000
  C   C383      1.0  0.19231  0.68265  0.97800  1.0000
  H   H665      1.0  0.21848  0.82421  0.86445  1.0000
  C   C384      1.0  0.14709  0.70034  0.70030  1.0000
  C   C385      1.0  0.22253  0.67412  0.91561  1.0000
  H   H666      1.0  0.37117  0.84143  0.48843  1.0000
  N   N21       1.0  0.43186  0.96135  0.74772  1.0000
  H   H667      1.0  0.29886  0.86127  0.53056  1.0000
  H   H668      1.0  0.08590  0.71630  0.74470  1.0000
  C   C386      1.0  0.21329  0.96483  0.88935  1.0000
  H   H669      1.0  0.07558  0.69393  0.49754  1.0000
  H   H670      1.0  0.08227  0.74741  0.66308  1.0000
  H   H671      1.0  0.40510  0.93053  0.78566  1.0000
  C   C387      1.0  0.11367  0.72998  0.66652  1.0000
  C   C388      1.0  0.48144  0.72297  0.71634  1.0000
  H   H672      1.0  0.37971  0.95519  0.83123  1.0000
  H   H673      1.0  0.14945  0.79375  0.53585  1.0000
  H   H674      1.0  0.39230  0.91228  0.92678  1.0000
  H   H675      1.0  0.48521  0.86580  0.85282  1.0000
  C   C389      1.0  0.49308  0.80579  0.78743  1.0000
  H   H676      1.0  0.42131  0.99565  0.80002  1.0000
  C   C390      1.0  0.02894  0.69439  0.72068  1.0000
  N   N22       1.0  0.48616  0.75430  0.71393  1.0000
  C   C391      1.0  0.45231  0.94831  0.75101  1.0000
  H   H677      1.0  0.19392  0.77395  0.75375  1.0000
  H   H678      1.0  0.13513  0.66769  0.96751  1.0000
  H   H679      1.0  0.14397  0.72991  0.76113  1.0000
  H   H680      1.0  0.13076  0.76651  0.61078  1.0000
  C   C392      1.0  0.22587  0.67484  0.87883  1.0000
  C   C393      1.0  0.32697  0.85683  0.49430  1.0000
  H   H681      1.0  0.12632  0.73677  0.49101  1.0000
  S   S94       1.0  0.13807  0.68459  0.61165  1.0000
  H   H682      1.0  0.48730  0.98373  0.78169  1.0000
  H   H683      1.0  0.42720  0.95684  0.69550  1.0000
  H   H684      1.0  0.46573  0.95254  0.72843  1.0000
  H   H685      1.0  0.34252  0.85707  0.51300  1.0000
  H   H686      1.0  0.11003  0.77585  0.50486  1.0000
  H   H687      1.0  0.47646  0.75912  0.64475  1.0000
  C   C394      1.0  0.48564  0.76481  0.74796  1.0000
  C   C395      1.0  0.42923  0.74222  0.64483  1.0000
  H   H688      1.0  0.12099  0.77611  0.66645  1.0000
  H   H689      1.0  0.10009  0.77391  0.61200  1.0000
  H   H690      1.0  0.17865  0.79879  0.75704  1.0000
  H   H691      1.0  0.13862  0.77279  0.71299  1.0000
  H   H692      1.0  0.17765  0.77650  0.79121  1.0000
  H   H693      1.0  0.46270  0.75204  0.75847  1.0000
  C   C396      1.0  0.45065  0.99474  0.74231  1.0000
  N   N23       1.0  0.25267  0.91778  0.87535  1.0000
  C   C397      1.0  0.22911  0.92523  0.88607  1.0000
  C   C398      1.0  0.24080  0.88465  0.88024  1.0000
  C   C399      1.0  0.27945  0.93431  0.89738  1.0000
  C   C400      1.0  0.26273  0.92686  0.84073  1.0000
  C   C401      1.0  0.23938  0.92619  0.81650  1.0000
  C   C402      1.0  0.23976  0.95918  0.88857  1.0000
  C   C403      1.0  0.30536  0.92753  0.89236  1.0000
  C   C404      1.0  0.21209  0.86291  0.86142  1.0000
  S   S95       1.0  0.15738  0.72967  0.98177  1.0000
  C   C405      1.0  0.25113  0.93060  0.78178  1.0000
  H   H694      1.0  0.11838  0.86727  0.50376  1.0000
  C   C406      1.0  0.33342  0.94949  0.91099  1.0000
  H   H695      1.0  0.22020  0.91525  0.91033  1.0000
  H   H696      1.0  0.20933  0.91484  0.86992  1.0000
  H   H697      1.0  0.25781  0.87856  0.87282  1.0000
  H   H698      1.0  0.23659  0.87891  0.90647  1.0000
  H   H699      1.0  0.27238  0.92953  0.92323  1.0000
  H   H700      1.0  0.28960  0.95894  0.89416  1.0000
  H   H701      1.0  0.28220  0.95012  0.83953  1.0000
  H   H702      1.0  0.27146  0.91266  0.83059  1.0000
  H   H703      1.0  0.23465  0.94455  0.82180  1.0000
  H   H704      1.0  0.21782  0.90493  0.81746  1.0000
  C   C407      1.0  0.40323  0.96101  0.83584  1.0000
  H   H705      1.0  0.25460  0.97194  0.86807  1.0000
  H   H706      1.0  0.31152  0.92916  0.86646  1.0000
  H   H707      1.0  0.29877  0.90474  0.90131  1.0000
  H   H708      1.0  0.19340  0.86719  0.86636  1.0000
  H   H709      1.0  0.21686  0.86474  0.83512  1.0000
  H   H710      1.0  0.16426  0.71519  0.71802  1.0000
  H   H711      1.0  0.42599  0.89474  0.94494  1.0000
  C   C408      1.0  0.35667  0.98172  0.70356  1.0000
  C   C409      1.0  0.42245  0.97519  0.80578  1.0000
  H   H712      1.0  0.27224  0.95243  0.77926  1.0000
  H   H713      1.0  0.25555  0.91232  0.77476  1.0000
  H   H714      1.0  0.41654  0.83618  0.49856  1.0000
  H   H715      1.0  0.45397  0.72072  0.65825  1.0000
  H   H716      1.0  0.39585  0.95492  0.71574  1.0000
  H   H717      1.0  0.35114  0.94342  0.90746  1.0000
  H   H718      1.0  0.34208  0.97270  0.90197  1.0000
  H   H719      1.0  0.32845  0.94853  0.93726  1.0000
  C   C410      1.0  0.11623  0.69741  0.70804  1.0000
  H   H720      1.0  0.19814  0.95271  0.90994  1.0000
  H   H721      1.0  0.40871  0.72623  0.65832  1.0000
  H   H722      1.0  0.41227  0.90574  0.70761  1.0000
  C   C411      1.0  0.41112  0.95323  0.77663  1.0000
  C   C412      1.0  0.10549  0.75393  0.65583  1.0000
  C   C413      1.0  0.37113  0.90164  0.69043  1.0000
  N   N24       1.0  0.11405  0.72526  0.70254  1.0000
  H   H723      1.0  0.38674  0.90281  0.73889  1.0000
  C   C414      1.0  0.14061  0.75251  0.71686  1.0000
  H   H724      1.0  0.13598  0.73668  0.65584  1.0000
  C   C415      1.0  0.05614  0.69496  0.70505  1.0000
  H   H725      1.0  0.23811  0.74448  0.97495  1.0000
  C   C416      1.0  0.39640  0.91330  0.71528  1.0000
  C   C417      1.0  0.41310  0.94798  0.71770  1.0000
  H   H726      1.0  0.35638  0.97380  0.67927  1.0000
  H   H727      1.0  0.36043  0.87688  0.68862  1.0000
  C   C418      1.0  0.10732  0.75770  0.61913  1.0000
  N   N25       1.0  0.49208  0.92968  0.93171  1.0000
  H   H728      1.0  0.37998  0.91157  0.66627  1.0000
  H   H729      1.0  0.25262  0.96836  0.91130  1.0000
  H   H730      1.0  0.43904  0.92353  0.75395  1.0000
  C   C419      1.0  0.47402  0.95900  0.78012  1.0000
  H   H731      1.0  0.15493  0.70989  0.67592  1.0000
  H   H732      1.0  0.20047  0.95739  0.86639  1.0000
  H   H733      1.0  0.43973  0.74254  0.70809  1.0000
  H   H734      1.0  0.40375  0.94043  0.84281  1.0000
  C   C420      1.0  0.20128  0.83038  0.87082  1.0000
  H   H735      1.0  0.16166  0.75751  0.70400  1.0000
  C   C421      1.0  0.46149  0.75507  0.69506  1.0000
  C   C422      1.0  0.14520  0.75118  0.75380  1.0000
  H   H736      1.0  0.45685  0.90201  0.89803  1.0000
  H   H737      1.0  0.22402  0.78453  0.48951  1.0000
  C   C423      1.0  0.45215  0.69915  0.73304  1.0000
  C   C424      1.0  0.41240  0.91768  0.91196  1.0000
  H   H738      1.0  0.12775  0.75337  0.76737  1.0000
  C   C425      1.0  0.17570  0.77675  0.76448  1.0000
  H   H739      1.0  0.19501  0.78789  0.54111  1.0000
  H   H740      1.0  0.17971  0.67101  0.91517  1.0000
  H   H741      1.0  0.09800  0.70863  0.65404  1.0000
  H   H742      1.0  0.19656  0.82689  0.89718  1.0000
  H   H743      1.0  0.19648  0.81711  0.56617  1.0000
  H   H744      1.0  0.42091  0.94020  0.90108  1.0000
  C   C426      1.0  0.45700  0.74355  0.65981  1.0000
  H   H745      1.0  0.46908  0.66858  0.74300  1.0000
  H   H746      1.0  0.23348  0.69775  0.92380  1.0000
  H   H747      1.0  0.49190  0.95627  0.97214  1.0000
  H   H748      1.0  0.45199  0.70461  0.75897  1.0000
  C   C427      1.0  0.46405  0.92244  0.91296  1.0000
  H   H749      1.0  0.25003  0.68729  0.87225  1.0000
  H   H750      1.0  0.05420  0.69669  0.67856  1.0000
  Fe  Fe48      1.0  0.15784  0.67004  0.57142  1.0000
  H   H751      1.0  0.46570  0.77839  0.69341  1.0000
  C   C428      1.0  0.17021  0.80899  0.52241  1.0000
  C   C429      1.0  0.43641  0.91715  0.93324  1.0000
  C   C430      1.0  0.20510  0.66721  0.49832  1.0000
  H   H752      1.0  0.40552  0.90078  0.89235  1.0000
  H   H753      1.0  0.38923  0.95111  0.76966  1.0000
  H   H754      1.0  0.48155  0.80482  0.73758  1.0000
  H   H755      1.0  0.21821  0.82665  0.52938  1.0000
  C   C431      1.0  0.19659  0.81020  0.54074  1.0000
  H   H756      1.0  0.30949  0.83322  0.48990  1.0000
  H   H757      1.0  0.32819  0.89645  0.51487  1.0000
  H   H758      1.0  0.11040  0.68940  0.73344  1.0000
  H   H759      1.0  0.02869  0.71539  0.71527  1.0000
  C   C432      1.0  0.07897  0.71700  0.49788  1.0000
  H   H760      1.0  0.46114  0.94973  0.80287  1.0000
  C   C433      1.0  0.44934  0.66816  0.73154  1.0000
  H   H761      1.0  0.46942  0.79315  0.79580  1.0000
  H   H762      1.0  0.44275  0.93448  0.95223  1.0000
  H   H763      1.0  0.43212  0.69750  0.72110  1.0000
  C   C434      1.0  0.48371  0.90486  0.95602  1.0000
  H   H764      1.0  0.02905  0.69146  0.74728  1.0000
  H   H765      1.0  0.49048  0.72552  0.90539  1.0000
  H   H766      1.0  0.46632  0.90345  0.97303  1.0000
  C   C435      1.0  0.21161  0.78452  0.97936  1.0000
  H   H767      1.0  0.18939  0.69811  0.96149  1.0000
  C   C436      1.0  0.23399  0.69403  0.51070  1.0000
  H   H768      1.0  0.46863  0.94071  0.89554  1.0000
  H   H769      1.0  0.25234  0.82745  0.97601  1.0000
  S   S96       1.0  0.05721  0.66969  0.58248  1.0000
  H   H770      1.0  0.12904  0.82629  0.51348  1.0000
  H   H771      1.0  0.29534  0.87331  0.49070  1.0000
  H   H772      1.0  0.23479  0.71534  0.50408  1.0000
  H   H773      1.0  0.47346  0.88285  0.94334  1.0000
  H   H774      1.0  0.25391  0.69392  0.50053  1.0000
  H   H775      1.0  0.23481  0.69277  0.53747  1.0000
  C   C437      1.0  0.14553  0.66995  0.70156  1.0000
  H   H776      1.0  0.16801  0.67293  0.69612  1.0000
  H   H777      1.0  0.22167  0.98918  0.89233  1.0000
  H   H778      1.0  0.15648  0.87874  0.49267  1.0000
  H   H779      1.0  0.49003  0.85892  0.98321  1.0000
  C   C438      1.0  0.12517  0.83079  0.48833  1.0000
  H   H780      1.0  0.16998  0.77736  0.48793  1.0000
  C   C439      1.0  0.16917  0.79844  0.48720  1.0000
  Fe  Fe49      1.0  0.66918  0.09075  0.05410  1.0000
  S   S97       1.0  0.66518  0.12057  0.01751  1.0000
  S   S98       1.0  0.65074  0.04005  0.04475  1.0000
  Fe  Fe50      1.0  0.70364  0.14518  0.10258  1.0000
  S   S99       1.0  0.70127  0.17759  0.06774  1.0000
  S   S100      1.0  0.72200  0.15903  0.15458  1.0000
  Fe  Fe51      1.0  0.65338  0.14080  0.05971  1.0000
  S   S101      1.0  0.61236  0.14646  0.05415  1.0000
  Fe  Fe52      1.0  0.71316  0.15415  0.02923  1.0000
  H   H781      1.0  0.62300  0.05141  0.36497  1.0000
  S   S102      1.0  0.65488  0.10923  0.09599  1.0000
  S   S103      1.0  0.71804  0.12346  0.06457  1.0000
  Fe  Fe53      1.0  0.85036  0.28128  0.27640  1.0000
  S   S104      1.0  0.81501  0.27492  0.31269  1.0000
  S   S105      1.0  0.83953  0.26443  0.22374  1.0000
  H   H782      1.0  0.50186  0.02913  0.19509  1.0000
  H   H783      1.0  0.50185  0.10416  0.11659  1.0000
  Fe  Fe54      1.0  0.84473  0.26975  0.34894  1.0000
  S   S106      1.0  0.83201  0.23404  0.38761  1.0000
  S   S107      1.0  0.87909  0.27356  0.31229  1.0000
  C   C440      1.0  0.57496  0.06777  0.12297  1.0000
  H   H784      1.0  0.70333  0.03529  0.02118  1.0000
  C   C441      1.0  0.75259  0.20428  0.45718  1.0000
  C   C442      1.0  0.77501  0.19722  0.46358  1.0000
  C   C443      1.0  0.79927  0.20649  0.44203  1.0000
  C   C444      1.0  0.80156  0.22335  0.41436  1.0000
  C   C445      1.0  0.77953  0.23104  0.40843  1.0000
  C   C446      1.0  0.75505  0.22134  0.42965  1.0000
  C   C447      1.0  0.74771  0.10421  0.47782  1.0000
  H   H785      1.0  0.81634  0.20058  0.44681  1.0000
  H   H786      1.0  0.78112  0.24407  0.38723  1.0000
  C   C448      1.0  0.54160  0.05118  0.13159  1.0000
  C   C449      1.0  0.75468  0.18919  0.17301  1.0000
  C   C450      1.0  0.77912  0.21067  0.15509  1.0000
  C   C451      1.0  0.80468  0.23350  0.17100  1.0000
  C   C452      1.0  0.80619  0.23554  0.20503  1.0000
  C   C453      1.0  0.78143  0.21457  0.22292  1.0000
  C   C454      1.0  0.75604  0.19155  0.20703  1.0000
  H   H787      1.0  0.77853  0.20934  0.12898  1.0000
  H   H788      1.0  0.82359  0.24951  0.15680  1.0000
  H   H789      1.0  0.78207  0.21568  0.24904  1.0000
  H   H790      1.0  0.73732  0.17521  0.22123  1.0000
  C   C455      1.0  0.59221  0.15207  0.08577  1.0000
  C   C456      1.0  0.56666  0.15403  0.07793  1.0000
  C   C457      1.0  0.55005  0.15869  0.10208  1.0000
  C   C458      1.0  0.55875  0.16138  0.13448  1.0000
  C   C459      1.0  0.58433  0.15947  0.14238  1.0000
  C   C460      1.0  0.60092  0.15470  0.11820  1.0000
  H   H791      1.0  0.55978  0.15214  0.05295  1.0000
  H   H792      1.0  0.53063  0.16043  0.09556  1.0000
  H   H793      1.0  0.59139  0.16173  0.16732  1.0000
  H   H794      1.0  0.62058  0.15334  0.12459  1.0000
  C   C461      1.0  0.63522  0.01499  0.01092  1.0000
  H   H795      1.0  0.73783  0.22698  0.42464  1.0000
  H   H796      1.0  0.50922  0.10463  0.16739  1.0000
  H   H797      1.0  0.52141  0.28099  0.07963  1.0000
  H   H798      1.0  0.58029  0.05328  0.10770  1.0000
  H   H799      1.0  0.82482  0.30453  0.17273  1.0000
  N   N26       1.0  0.70435  0.11337  0.40489  1.0000
  C   C462      1.0  0.68424  0.08927  0.38136  1.0000
  C   C463      1.0  0.73029  0.13819  0.38654  1.0000
  C   C464      1.0  0.71723  0.09973  0.42767  1.0000
  C   C465      1.0  0.68794  0.12549  0.42456  1.0000
  C   C466      1.0  0.66140  0.12654  0.40807  1.0000
  C   C467      1.0  0.65995  0.05950  0.39693  1.0000
  C   C468      1.0  0.74056  0.12135  0.45249  1.0000
  C   C469      1.0  0.72255  0.15535  0.36113  1.0000
  C   C470      1.0  0.74982  0.17549  0.34017  1.0000
  C   C471      1.0  0.65060  0.14400  0.42863  1.0000
  C   C472      1.0  0.63543  0.04004  0.37286  1.0000
  H   H800      1.0  0.49657  0.31220  0.99372  1.0000
  H   H801      1.0  0.69789  0.08346  0.36508  1.0000
  H   H802      1.0  0.67279  0.09729  0.36487  1.0000
  H   H803      1.0  0.74606  0.15588  0.40334  1.0000
  H   H804      1.0  0.74352  0.12921  0.37433  1.0000
  H   H805      1.0  0.72784  0.08886  0.41379  1.0000
  H   H806      1.0  0.69905  0.08170  0.44228  1.0000
  H   H807      1.0  0.67855  0.11224  0.44720  1.0000
  H   H808      1.0  0.70402  0.14852  0.43292  1.0000
  H   H809      1.0  0.64213  0.10355  0.40498  1.0000
  H   H810      1.0  0.66745  0.13719  0.38395  1.0000
  H   H811      1.0  0.67045  0.04634  0.40514  1.0000
  H   H812      1.0  0.64932  0.06361  0.41822  1.0000
  H   H813      1.0  0.81525  0.23460  0.99631  1.0000
  H   H814      1.0  0.76199  0.13695  0.44026  1.0000
  H   H815      1.0  0.70452  0.14014  0.34452  1.0000
  H   H816      1.0  0.71565  0.17006  0.37363  1.0000
  H   H817      1.0  0.75666  0.16180  0.32551  1.0000
  H   H818      1.0  0.74424  0.18886  0.32343  1.0000
  H   H819      1.0  0.76904  0.19121  0.35533  1.0000
  H   H820      1.0  0.66878  0.16764  0.43147  1.0000
  H   H821      1.0  0.63123  0.14389  0.41676  1.0000
  H   H822      1.0  0.64346  0.13364  0.45294  1.0000
  H   H823      1.0  0.73357  0.23711  0.13846  1.0000
  H   H824      1.0  0.64525  0.03509  0.35140  1.0000
  H   H825      1.0  0.50573  0.06708  0.22703  1.0000
  H   H826      1.0  0.53656  0.03005  0.14397  1.0000
  C   C473      1.0  0.51261  0.08822  0.21374  1.0000
  H   H827      1.0  0.76687  0.26083  0.19827  1.0000
  C   C474      1.0  0.90036  0.24501  0.42286  1.0000
  H   H828      1.0  0.88605  0.28879  0.41341  1.0000
  H   H829      1.0  0.66726  0.00643  0.44031  1.0000
  C   C475      1.0  0.83838  0.29585  0.44735  1.0000
  N   N27       1.0  0.89484  0.31274  0.45856  1.0000
  H   H830      1.0  0.79016  0.22075  0.04882  1.0000
  H   H831      1.0  0.87801  0.22682  0.43092  1.0000
  H   H832      1.0  0.93292  0.28999  0.43455  1.0000
  H   H833      1.0  0.80899  0.29758  0.22867  1.0000
  H   H834      1.0  0.82158  0.29607  0.01173  1.0000
  H   H835      1.0  0.67605  0.04459  0.48242  1.0000
  H   H836      1.0  0.79335  0.28885  0.44296  1.0000
  C   C476      1.0  0.76311  0.27834  0.18692  1.0000
  C   C477      1.0  0.79390  0.24179  0.03718  1.0000
  H   H837      1.0  0.69567  0.22504  0.15107  1.0000
  C   C478      1.0  0.75643  0.29540  0.23981  1.0000
  H   H838      1.0  0.50235  0.29144  0.10941  1.0000
  H   H839      1.0  0.73179  0.30806  0.29430  1.0000
  C   C479      1.0  0.50356  0.10697  0.23446  1.0000
  H   H840      1.0  0.78965  0.30699  0.27836  1.0000
  H   H841      1.0  0.71933  0.21718  0.17623  1.0000
  C   C480      1.0  0.72444  0.07946  0.99846  1.0000
  H   H842      1.0  0.58896  0.07388  0.14511  1.0000
  H   H843      1.0  0.72931  0.06553  0.04647  1.0000
  C   C481      1.0  0.65474  0.02413  0.48122  1.0000
  C   C482      1.0  0.91023  0.27324  0.44308  1.0000
  H   H844      1.0  0.54562  0.09388  0.14537  1.0000
  H   H845      1.0  0.86551  0.26583  0.44623  1.0000
  H   H846      1.0  0.61934  0.01845  0.38457  1.0000
  H   H847      1.0  0.91677  0.23712  0.42558  1.0000
  H   H848      1.0  0.86676  0.32880  0.21245  1.0000
  C   C483      1.0  0.50030  0.28097  0.08538  1.0000
  H   H849      1.0  0.58089  0.08849  0.10907  1.0000
  C   C484      1.0  0.77192  0.31218  0.27143  1.0000
  S   S108      1.0  0.53844  0.16733  0.16567  1.0000
  H   H850      1.0  0.71484  0.25867  0.19900  1.0000
  H   H851      1.0  0.89914  0.24974  0.39685  1.0000
  H   H852      1.0  0.79860  0.25865  0.05635  1.0000
  H   H853      1.0  0.73915  0.27791  0.30370  1.0000
  H   H854      1.0  0.54490  0.07128  0.17768  1.0000
  C   C485      1.0  0.49998  0.08413  0.10479  1.0000
  H   H855      1.0  0.51153  0.26845  0.39303  1.0000
  H   H856      1.0  0.76136  0.31424  0.32185  1.0000
  C   C486      1.0  0.88776  0.28490  0.43961  1.0000
  C   C487      1.0  0.82019  0.25307  0.01349  1.0000
  N   N28       1.0  0.50099  0.05947  0.15924  1.0000
  H   H857      1.0  0.87258  0.30218  0.04346  1.0000
  H   H858      1.0  0.54832  0.12581  0.48089  1.0000
  H   H859      1.0  0.74897  0.27141  0.24504  1.0000
  C   C488      1.0  0.64969  0.00226  0.45745  1.0000
  C   C489      1.0  0.88955  0.31130  0.02382  1.0000
  C   C490      1.0  0.53388  0.07029  0.15426  1.0000
  H   H860      1.0  0.51423  0.11081  0.25860  1.0000
  S   S109      1.0  0.87009  0.31861  0.36189  1.0000
  C   C491      1.0  0.74956  0.30240  0.29944  1.0000
  H   H861      1.0  0.83688  0.28603  0.42310  1.0000
  H   H862      1.0  0.89508  0.29406  0.01596  1.0000
  H   H863      1.0  0.52247  0.27140  0.43475  1.0000
  C   C492      1.0  0.51384  0.25598  0.41372  1.0000
  H   H864      1.0  0.60273  0.15384  0.47240  1.0000
  H   H865      1.0  0.51112  0.12911  0.22300  1.0000
  C   C493      1.0  0.81635  0.30759  0.44782  1.0000
  Fe  Fe55      1.0  0.90298  0.32306  0.32375  1.0000
  H   H866      1.0  0.73542  0.29638  0.23709  1.0000
  H   H867      1.0  0.53037  0.24893  0.40733  1.0000
  N   N29       1.0  0.77472  0.30534  0.20886  1.0000
  H   H868      1.0  0.52277  0.08917  0.09739  1.0000
  C   C494      1.0  0.49835  0.08251  0.17949  1.0000
  H   H869      1.0  0.83078  0.27763  0.46540  1.0000
  H   H870      1.0  0.84023  0.25730  0.02732  1.0000
  H   H871      1.0  0.75644  0.09068  0.46609  1.0000
  H   H872      1.0  0.72589  0.27859  0.16114  1.0000
  H   H873      1.0  0.54569  0.31532  0.01136  1.0000
  C   C495      1.0  0.54398  0.32881  0.99146  1.0000
  H   H874      1.0  0.53744  0.10077  0.21176  1.0000
  H   H875      1.0  0.52903  0.04572  0.10858  1.0000
  C   C496      1.0  0.72948  0.26358  0.17750  1.0000
  C   C497      1.0  0.80722  0.31563  0.21579  1.0000
  H   H876      1.0  0.77299  0.23688  0.02435  1.0000
  S   S110      1.0  0.75097  0.17287  0.99183  1.0000
  H   H877      1.0  0.74653  0.32195  0.18992  1.0000
  H   H878      1.0  0.95387  0.31855  0.38122  1.0000
  C   C498      1.0  0.87779  0.32233  0.99566  1.0000
  H   H879      1.0  0.77350  0.18440  0.48494  1.0000
  C   C499      1.0  0.71903  0.23401  0.15969  1.0000
  C   C500      1.0  0.82444  0.28102  0.99454  1.0000
  H   H880      1.0  0.77569  0.28416  0.16368  1.0000
  H   H881      1.0  0.73206  0.13448  0.46544  1.0000
  Fe  Fe56      1.0  0.84411  0.32454  0.32182  1.0000
  H   H882      1.0  0.50231  0.25555  0.28419  1.0000
  S   S111      1.0  0.72054  0.19168  0.48197  1.0000
  H   H883      1.0  0.99232  0.32610  0.42233  1.0000
  H   H884      1.0  0.91167  0.26742  0.46858  1.0000
  H   H885      1.0  0.82222  0.32491  0.42881  1.0000
  C   C501      1.0  0.87102  0.32142  0.45316  1.0000
  H   H886      1.0  0.81632  0.31718  0.47185  1.0000
  C   C502      1.0  0.82836  0.32484  0.18592  1.0000
  H   H887      1.0  0.70769  0.08513  0.00793  1.0000
  C   C503      1.0  0.72513  0.05658  0.02143  1.0000
  H   H888      1.0  0.74328  0.05196  0.01445  1.0000
  C   C504      1.0  0.77075  0.32909  0.19182  1.0000
  H   H889      1.0  0.53510  0.99679  0.00115  1.0000
  H   H890      1.0  0.74678  0.09994  0.99924  1.0000
  H   H891      1.0  0.92552  0.32886  0.05908  1.0000
  Fe  Fe57      1.0  0.66722  0.09577  0.54942  1.0000
  S   S112      1.0  0.65597  0.12805  0.52519  1.0000
  S   S113      1.0  0.63819  0.04525  0.53592  1.0000
  Fe  Fe58      1.0  0.71207  0.14629  0.59615  1.0000
  S   S114      1.0  0.70346  0.18067  0.57340  1.0000
  S   S115      1.0  0.74142  0.15746  0.64209  1.0000
  Fe  Fe59      1.0  0.65476  0.14559  0.57454  1.0000
  S   S116      1.0  0.62412  0.16484  0.58462  1.0000
  Fe  Fe60      1.0  0.70544  0.16088  0.52579  1.0000
  C   C505      1.0  0.71120  0.07273  0.90573  1.0000
  S   S117      1.0  0.66269  0.11146  0.59954  1.0000
  S   S118      1.0  0.71746  0.12803  0.54778  1.0000
  Fe  Fe61      1.0  0.83969  0.29353  0.77914  1.0000
  C   C506      1.0  0.69977  0.10192  0.94566  1.0000
  S   S119      1.0  0.82117  0.27628  0.72751  1.0000
  C   C507      1.0  0.98262  0.32249  0.88188  1.0000
  C   C508      1.0  0.51584  0.14909  0.53578  1.0000
  Fe  Fe62      1.0  0.82275  0.29395  0.85027  1.0000
  S   S120      1.0  0.78364  0.27429  0.88594  1.0000
  S   S121      1.0  0.84546  0.27204  0.82455  1.0000
  C   C509      1.0  0.50947  0.08160  0.58450  1.0000
  H   H892      1.0  0.69145  0.04880  0.96586  1.0000
  C   C510      1.0  0.75825  0.19975  0.96131  1.0000
  C   C511      1.0  0.69278  0.21471  0.64520  1.0000
  C   C512      1.0  0.75061  0.23809  0.93625  1.0000
  C   C513      1.0  0.77377  0.24478  0.91392  1.0000
  C   C514      1.0  0.78878  0.22846  0.91499  1.0000
  C   C515      1.0  0.78108  0.20609  0.93865  1.0000
  C   C516      1.0  0.89058  0.29221  0.93850  1.0000
  H   H893      1.0  0.73880  0.25054  0.93549  1.0000
  H   H894      1.0  0.80647  0.23327  0.89775  1.0000
  H   H895      1.0  0.79311  0.19387  0.93963  1.0000
  C   C517      1.0  0.76188  0.19076  0.66613  1.0000
  C   C518      1.0  0.77062  0.21949  0.65435  1.0000
  C   C519      1.0  0.78824  0.24514  0.67362  1.0000
  C   C520      1.0  0.79722  0.24268  0.70518  1.0000
  C   C521      1.0  0.78773  0.21389  0.71729  1.0000
  C   C522      1.0  0.77046  0.18827  0.69785  1.0000
  H   H896      1.0  0.76464  0.22204  0.62999  1.0000
  H   H897      1.0  0.79540  0.26716  0.66379  1.0000
  H   H898      1.0  0.79438  0.21138  0.74135  1.0000
  H   H899      1.0  0.76402  0.16630  0.70736  1.0000
  C   C523      1.0  0.59645  0.15622  0.61458  1.0000
  C   C524      1.0  0.58640  0.13148  0.63514  1.0000
  C   C525      1.0  0.56360  0.12531  0.65792  1.0000
  C   C526      1.0  0.55010  0.14325  0.65955  1.0000
  C   C527      1.0  0.56041  0.16809  0.63920  1.0000
  C   C528      1.0  0.58366  0.17467  0.61706  1.0000
  H   H900      1.0  0.59615  0.11714  0.63349  1.0000
  H   H901      1.0  0.55603  0.10630  0.67398  1.0000
  H   H902      1.0  0.55070  0.18246  0.64084  1.0000
  H   H903      1.0  0.59170  0.19414  0.60161  1.0000
  H   H904      1.0  0.68021  0.22160  0.74725  1.0000
  H   H905      1.0  0.66777  0.00319  0.54861  1.0000
  C   C529      1.0  0.66200  0.12433  0.68632  1.0000
  H   H906      1.0  0.90309  0.32955  0.50758  1.0000
  S   S122      1.0  0.93267  0.31949  0.85410  1.0000
  H   H907      1.0  0.67247  0.02905  0.91893  1.0000
  C   C530      1.0  0.65711  0.21903  0.68083  1.0000
  H   H908      1.0  0.61321  0.01063  0.93221  1.0000
  C   C531      1.0  0.75153  0.11394  0.93596  1.0000
  H   H909      1.0  0.73838  0.21889  0.75335  1.0000
  H   H910      1.0  0.75684  0.12968  0.95650  1.0000
  C   C532      1.0  0.69502  0.21311  0.73876  1.0000
  H   H911      1.0  0.72523  0.21098  0.97714  1.0000
  C   C533      1.0  0.89853  0.30903  0.49413  1.0000
  H   H912      1.0  0.56458  0.14057  0.55338  1.0000
  H   H913      1.0  0.56227  0.18235  0.55003  1.0000
  C   C534      1.0  0.70356  0.22167  0.70292  1.0000
  H   H914      1.0  0.54911  0.10492  0.53563  1.0000
  H   H915      1.0  0.72958  0.26115  0.65175  1.0000
  H   H916      1.0  0.52553  0.12815  0.59207  1.0000
  H   H917      1.0  0.57000  0.01858  0.98005  1.0000
  H   H918      1.0  0.52599  0.24509  0.59248  1.0000
  H   H919      1.0  0.65565  0.12151  0.71229  1.0000
  H   H920      1.0  0.64773  0.21906  0.65650  1.0000
  C   C535      1.0  0.54039  0.31175  0.96007  1.0000
  H   H921      1.0  0.70764  0.11540  0.96818  1.0000
  H   H922      1.0  0.70139  0.24127  0.58435  1.0000
  H   H923      1.0  0.68929  0.15040  0.95224  1.0000
  H   H924      1.0  0.60440  0.22168  0.68112  1.0000
  H   H925      1.0  0.91847  0.27947  0.91106  1.0000
  H   H926      1.0  0.73681  0.24540  0.59766  1.0000
  H   H927      1.0  0.67541  0.20245  0.62639  1.0000
  C   C536      1.0  0.61134  0.21823  0.70543  1.0000
  H   H928      1.0  0.97507  0.30143  0.86948  1.0000
  H   H929      1.0  0.68757  0.15890  0.65212  1.0000
  H   H930      1.0  0.84334  0.26074  0.94506  1.0000
  H   H931      1.0  0.82433  0.12512  0.93169  1.0000
  C   C537      1.0  0.68043  0.15754  0.67763  1.0000
  C   C538      1.0  0.87926  0.27896  0.54595  1.0000
  H   H932      1.0  0.72742  0.05428  0.95744  1.0000
  H   H933      1.0  0.83321  0.29819  0.92891  1.0000
  H   H934      1.0  0.71693  0.08899  0.88552  1.0000
  N   N30       1.0  0.51764  0.12096  0.54070  1.0000
  H   H935      1.0  0.63488  0.19818  0.72736  1.0000
  H   H936      1.0  0.64143  0.11306  0.67129  1.0000
  H   H937      1.0  0.55420  0.22457  0.55861  1.0000
  H   H938      1.0  0.80465  0.27192  0.97813  1.0000
  H   H939      1.0  0.71646  0.22153  0.78585  1.0000
  C   C539      1.0  0.70956  0.24854  0.63621  1.0000
  C   C540      1.0  0.53706  0.20479  0.54511  1.0000
  H   H940      1.0  0.76502  0.12034  0.49467  1.0000
  S   S123      1.0  0.52178  0.13525  0.68852  1.0000
  H   H941      1.0  0.56450  0.16279  0.49805  1.0000
  H   H942      1.0  0.67562  0.11342  0.68172  1.0000
  H   H943      1.0  0.90059  0.25604  0.94561  1.0000
  H   H944      1.0  0.62502  0.24026  0.71742  1.0000
  H   H945      1.0  0.88760  0.30367  0.91730  1.0000
  H   H946      1.0  0.59075  0.20466  0.72005  1.0000
  C   C541      1.0  0.69831  0.12272  0.91943  1.0000
  H   H947      1.0  0.70954  0.20723  0.64244  1.0000
  H   H948      1.0  0.68627  0.02474  0.86244  1.0000
  H   H949      1.0  0.67655  0.08403  0.95139  1.0000
  C   C542      1.0  0.87137  0.28283  0.51134  1.0000
  H   H950      1.0  0.66915  0.24286  0.68877  1.0000
  H   H951      1.0  0.50262  0.08599  0.63592  1.0000
  H   H952      1.0  0.73195  0.27763  0.59527  1.0000
  H   H953      1.0  0.86579  0.26424  0.97861  1.0000
  H   H954      1.0  0.87905  0.25253  0.90955  1.0000
  N   N31       1.0  0.67864  0.20701  0.67843  1.0000
  H   H955      1.0  0.70050  0.16769  0.69336  1.0000
  C   C543      1.0  0.86209  0.27759  0.96009  1.0000
  H   H956      1.0  0.61359  0.17938  0.69203  1.0000
  H   H957      1.0  0.72738  0.08923  0.49216  1.0000
  H   H958      1.0  0.86361  0.26122  0.49874  1.0000
  H   H959      1.0  0.50091  0.07870  0.51516  1.0000
  H   H960      1.0  0.88656  0.29979  0.56014  1.0000
  H   H961      1.0  0.64375  0.16359  0.66282  1.0000
  H   H962      1.0  0.72216  0.21732  0.69688  1.0000
  H   H963      1.0  0.53294  0.08640  0.58724  1.0000
  C   C544      1.0  0.71539  0.06650  0.96387  1.0000
  C   C545      1.0  0.72054  0.25338  0.60121  1.0000
  C   C546      1.0  0.66172  0.17331  0.68145  1.0000
  H   H964      1.0  0.68384  0.18857  0.74255  1.0000
  H   H965      1.0  0.49958  0.10700  0.49262  1.0000
  H   H966      1.0  0.69490  0.25849  0.63890  1.0000
  H   H967      1.0  0.64998  0.16606  0.70504  1.0000
  C   C547      1.0  0.72299  0.22732  0.76012  1.0000
  H   H968      1.0  0.49575  0.04951  0.62389  1.0000
  H   H969      1.0  0.77565  0.09280  0.95755  1.0000
  H   H970      1.0  0.51929  0.28977  0.96045  1.0000
  C   C548      1.0  0.62898  0.20168  0.70268  1.0000
  H   H971      1.0  0.73519  0.25212  0.75771  1.0000
  C   C549      1.0  0.62916  0.02382  0.98115  1.0000
  C   C550      1.0  0.63258  0.01905  0.50409  1.0000
  C   C551      1.0  0.51812  0.25430  0.61201  1.0000
  H   H972      1.0  0.71395  0.24646  0.70180  1.0000
  S   S124      1.0  0.81521  0.31358  0.80501  1.0000
  C   C552      1.0  0.67796  0.04776  0.90194  1.0000
  H   H973      1.0  0.49839  0.06387  0.56603  1.0000
  C   C553      1.0  0.67181  0.03456  0.86789  1.0000
  H   H974      1.0  0.85262  0.28759  0.51291  1.0000
  C   C554      1.0  0.54880  0.12635  0.53417  1.0000
  H   H975      1.0  0.53385  0.26925  0.90968  1.0000
  C   C555      1.0  0.80717  0.13220  0.93203  1.0000
  H   H976      1.0  0.80915  0.14455  0.90929  1.0000
  H   H977      1.0  0.68836  0.11024  0.89675  1.0000
  C   C556      1.0  0.53896  0.17715  0.55468  1.0000
  H   H978      1.0  0.52904  0.24818  0.87333  1.0000
  H   H979      1.0  0.51500  0.27410  0.87561  1.0000
  C   C557      1.0  0.89747  0.26850  0.92549  1.0000
  H   H980      1.0  0.91043  0.30867  0.95238  1.0000
  H   H981      1.0  0.81176  0.14746  0.95293  1.0000
  H   H982      1.0  0.72094  0.14179  0.91400  1.0000
  H   H983      1.0  0.54025  0.32503  0.93898  1.0000
  Fe  Fe63      1.0  0.88886  0.31610  0.83391  1.0000
  H   H984      1.0  0.72483  0.06180  0.90124  1.0000
  N   N32       1.0  0.85308  0.29861  0.97523  1.0000
  H   H985      1.0  0.67781  0.15015  0.91120  1.0000
  H   H986      1.0  0.55952  0.30766  0.95718  1.0000
  H   H987      1.0  0.77262  0.08983  0.91416  1.0000
  C   C558      1.0  0.61761  0.00334  0.95503  1.0000
  H   H988      1.0  0.65602  0.11799  0.93673  1.0000
  C   C559      1.0  0.77592  0.10465  0.93504  1.0000
  C   C560      1.0  0.54534  0.00492  0.97693  1.0000
  H   H989      1.0  0.52253  0.24696  0.63563  1.0000
  H   H990      1.0  0.85921  0.26048  0.55796  1.0000
  H   H991      1.0  0.75499  0.12784  0.91405  1.0000
  N   N33       1.0  0.71944  0.08873  0.93783  1.0000
  H   H992      1.0  0.53102  0.27914  0.61053  1.0000
  H   H993      1.0  0.91867  0.30676  0.49832  1.0000
  H   H994      1.0  0.89737  0.27318  0.54601  1.0000
  H   H995      1.0  0.66237  0.05637  0.90641  1.0000
  C   C561      1.0  0.51836  0.25749  0.88937  1.0000
  C   C562      1.0  0.84696  0.31448  0.94802  1.0000
  H   H996      1.0  0.67589  0.05203  0.84964  1.0000
  H   H997      1.0  0.64802  0.01645  0.86615  1.0000
  C   C563      1.0  0.67910  0.13600  0.93068  1.0000
  H   H998      1.0  0.53720  0.01948  0.96663  1.0000
  C   C564      1.0  0.74283  0.21565  0.95984  1.0000
  C   C565      1.0  0.50948  0.11084  0.57527  1.0000
  H   H999      1.0  0.63318  0.04639  0.97836  1.0000
  H   H1000     1.0  0.54129  0.20939  0.51882  1.0000
  C   C566      1.0  0.56242  0.14041  0.50082  1.0000
  H   H1001     1.0  0.60931  0.16033  0.51508  1.0000
  H   H1002     1.0  0.59318  0.12271  0.49920  1.0000
  H   H1003     1.0  0.50134  0.25684  0.78300  1.0000
  H   H1004     1.0  0.51794  0.15509  0.50969  1.0000
  H   H1005     1.0  0.53435  0.17376  0.58097  1.0000
  C   C567      1.0  0.59377  0.14448  0.49672  1.0000
  H   H1006     1.0  0.51464  0.20152  0.55127  1.0000
  H   H1007     1.0  0.80683  0.31598  0.96422  1.0000
  C   C568      1.0  0.49616  0.09748  0.51744  1.0000
  Fe  Fe64      1.0  0.71854  0.57258  0.44750  1.0000
  Fe  Fe65      1.0  0.65785  0.51580  0.45894  1.0000
  S   S125      1.0  0.75258  0.59468  0.40587  1.0000
  H   H1008     1.0  0.85528  0.55911  0.40839  1.0000
  S   S126      1.0  0.68407  0.54757  0.02949  1.0000
  S   S127      1.0  0.60628  0.65095  0.11718  1.0000
  Fe  Fe66      1.0  0.73293  0.56795  0.01636  1.0000
  S   S128      1.0  0.77244  0.58826  0.05132  1.0000
  S   S129      1.0  0.65750  0.60588  0.99988  1.0000
  Fe  Fe67      1.0  0.68305  0.57962  0.99316  1.0000
  H   H1009     1.0  0.64329  0.62345  0.11547  1.0000
  S   S130      1.0  0.67067  0.56211  0.44233  1.0000
  H   H1010     1.0  0.56532  0.37768  0.02912  1.0000
  H   H1011     1.0  0.53016  0.39009  0.39904  1.0000
  H   H1012     1.0  0.74745  0.49284  0.25296  1.0000
  S   S131      1.0  0.82765  0.35765  0.32914  1.0000
  Fe  Fe68      1.0  0.85100  0.55213  0.27774  1.0000
  S   S132      1.0  0.82130  0.50977  0.25021  1.0000
  S   S133      1.0  0.83544  0.55327  0.33018  1.0000
  Fe  Fe69      1.0  0.89851  0.57552  0.22172  1.0000
  S   S134      1.0  0.87068  0.53477  0.19155  1.0000
  S   S135      1.0  0.94448  0.61433  0.20464  1.0000
  Fe  Fe70      1.0  0.83122  0.53945  0.20666  1.0000
  S   S136      1.0  0.78976  0.52520  0.17553  1.0000
  Fe  Fe71      1.0  0.86290  0.50843  0.23752  1.0000
  S   S137      1.0  0.86744  0.46685  0.23176  1.0000
  S   S138      1.0  0.85907  0.58213  0.23450  1.0000
  S   S139      1.0  0.89279  0.54896  0.26745  1.0000
  C   C569      1.0  0.75644  0.49409  0.30380  1.0000
  C   C570      1.0  0.96678  0.59792  0.15082  1.0000
  C   C571      1.0  0.97157  0.61977  0.17393  1.0000
  H   H1013     1.0  0.92460  0.63591  0.07976  1.0000
  H   H1014     1.0  0.94641  0.57644  0.15176  1.0000
  C   C572      1.0  0.83816  0.38776  0.30181  1.0000
  C   C573      1.0  0.83224  0.41090  0.30950  1.0000
  C   C574      1.0  0.84086  0.43533  0.28828  1.0000
  C   C575      1.0  0.85528  0.43659  0.25912  1.0000
  C   C576      1.0  0.86094  0.41331  0.25142  1.0000
  C   C577      1.0  0.85242  0.38905  0.27261  1.0000
  H   H1015     1.0  0.82109  0.41004  0.33200  1.0000
  H   H1016     1.0  0.83639  0.45315  0.29446  1.0000
  H   H1017     1.0  0.87215  0.41419  0.22895  1.0000
  H   H1018     1.0  0.85706  0.37145  0.26639  1.0000
  H   H1019     1.0  0.95616  0.48875  0.33317  1.0000
  C   C578      1.0  0.97822  0.36368  0.36321  1.0000
  H   H1020     1.0  0.75609  0.58094  0.24033  1.0000
  H   H1021     1.0  0.62581  0.52528  0.11575  1.0000
  C   C579      1.0  0.57667  0.54816  0.99662  1.0000
  C   C580      1.0  0.77575  0.57055  0.08656  1.0000
  C   C581      1.0  0.75766  0.53976  0.09178  1.0000
  C   C582      1.0  0.76222  0.52629  0.11921  1.0000
  C   C583      1.0  0.78497  0.54338  0.14156  1.0000
  C   C584      1.0  0.80248  0.57429  0.13684  1.0000
  C   C585      1.0  0.79798  0.58777  0.10938  1.0000
  H   H1022     1.0  0.74042  0.52627  0.07447  1.0000
  H   H1023     1.0  0.74825  0.50241  0.12291  1.0000
  H   H1024     1.0  0.81911  0.58785  0.15457  1.0000
  H   H1025     1.0  0.81179  0.61168  0.10576  1.0000
  C   C586      1.0  0.77417  0.58172  0.38419  1.0000
  C   C587      1.0  0.77593  0.55660  0.39394  1.0000
  C   C588      1.0  0.79436  0.54801  0.37692  1.0000
  C   C589      1.0  0.81084  0.56392  0.34937  1.0000
  C   C590      1.0  0.80870  0.58877  0.33934  1.0000
  C   C591      1.0  0.79064  0.59762  0.35668  1.0000
  H   H1026     1.0  0.76323  0.54395  0.41476  1.0000
  H   H1027     1.0  0.79586  0.52886  0.38514  1.0000
  H   H1028     1.0  0.82174  0.60179  0.31885  1.0000
  H   H1029     1.0  0.78973  0.61722  0.34893  1.0000
  H   H1030     1.0  0.87414  0.61988  0.07566  1.0000
  H   H1031     1.0  0.77128  0.59186  0.28034  1.0000
  C   C592      1.0  0.64937  0.61513  0.06549  1.0000
  C   C593      1.0  0.64322  0.61783  0.03308  1.0000
  C   C594      1.0  0.62466  0.63017  0.02651  1.0000
  C   C595      1.0  0.61254  0.63964  0.05170  1.0000
  H   H1032     1.0  0.82328  0.52324  0.45113  1.0000
  H   H1033     1.0  0.87052  0.37615  0.40360  1.0000
  H   H1034     1.0  0.61965  0.63250  0.00167  1.0000
  H   H1035     1.0  0.78599  0.55354  0.28244  1.0000
  C   C596      1.0  0.53272  0.40093  0.44958  1.0000
  H   H1036     1.0  0.86299  0.58699  0.14180  1.0000
  C   C597      1.0  0.58023  0.44342  0.46730  1.0000
  C   C598      1.0  0.59113  0.44800  0.43563  1.0000
  H   H1037     1.0  0.59545  0.43029  0.05053  1.0000
  C   C599      1.0  0.54401  0.40486  0.41810  1.0000
  H   H1038     1.0  0.91374  0.35507  0.04719  1.0000
  H   H1039     1.0  0.76816  0.46235  0.32371  1.0000
  H   H1040     1.0  0.98155  0.38857  0.44702  1.0000
  C   C600      1.0  0.86528  0.55367  0.42930  1.0000
  H   H1041     1.0  0.74357  0.54033  0.20449  1.0000
  H   H1042     1.0  0.94219  0.58691  0.07677  1.0000
  C   C601      1.0  0.55896  0.54828  0.05133  1.0000
  C   C602      1.0  0.59626  0.53198  0.04179  1.0000
  H   H1043     1.0  0.95944  0.45013  0.39526  1.0000
  H   H1044     1.0  0.84583  0.58397  0.08767  1.0000
  N   N34       1.0  0.51686  0.34856  0.02869  1.0000
  C   C603      1.0  0.53249  0.55239  0.04017  1.0000
  H   H1045     1.0  0.96360  0.41983  0.35020  1.0000
  C   C604      1.0  0.59915  0.53141  0.07922  1.0000
  C   C605      1.0  0.62559  0.52754  0.08907  1.0000
  H   H1046     1.0  0.50336  0.50075  0.34142  1.0000
  H   H1047     1.0  0.94705  0.52302  0.29800  1.0000
  H   H1048     1.0  0.88781  0.60253  0.02872  1.0000
  H   H1049     1.0  0.57831  0.57115  0.05596  1.0000
  H   H1050     1.0  0.55257  0.53728  0.07534  1.0000
  H   H1051     1.0  0.77844  0.52172  0.45593  1.0000
  H   H1052     1.0  0.61691  0.55274  0.03413  1.0000
  H   H1053     1.0  0.81687  0.33473  0.23281  1.0000
  C   C606      1.0  0.52445  0.56838  0.06618  1.0000
  H   H1054     1.0  0.54403  0.59077  0.07161  1.0000
  H   H1055     1.0  0.53544  0.53113  0.41629  1.0000
  H   H1056     1.0  0.97610  0.42717  0.28262  1.0000
  H   H1057     1.0  0.54841  0.47476  0.06215  1.0000
  H   H1058     1.0  0.96094  0.44671  0.26047  1.0000
  C   C607      1.0  0.51792  0.33100  0.05738  1.0000
  H   H1059     1.0  0.93874  0.37919  0.25858  1.0000
  H   H1060     1.0  0.87073  0.33534  0.47363  1.0000
  H   H1061     1.0  0.57719  0.44451  0.07646  1.0000
  H   H1062     1.0  0.57877  0.51329  0.09074  1.0000
  C   C608      1.0  0.92425  0.33786  0.44578  1.0000
  H   H1063     1.0  0.60318  0.55298  0.08974  1.0000
  H   H1064     1.0  0.89118  0.41573  0.41247  1.0000
  H   H1065     1.0  0.86653  0.36364  0.20776  1.0000
  H   H1066     1.0  0.81021  0.36941  0.21179  1.0000
  C   C609      1.0  0.53352  0.48295  0.44712  1.0000
  H   H1067     1.0  0.92587  0.50848  0.26144  1.0000
  H   H1068     1.0  0.57072  0.49814  0.38881  1.0000
  H   H1069     1.0  0.86571  0.62579  0.18131  1.0000
  H   H1070     1.0  0.56452  0.61121  0.43583  1.0000
  H   H1071     1.0  0.58146  0.43175  0.38662  1.0000
  H   H1072     1.0  0.54241  0.58185  0.40749  1.0000
  H   H1073     1.0  0.79526  0.38571  0.16235  1.0000
  H   H1074     1.0  0.97343  0.48139  0.30025  1.0000
  N   N35       1.0  0.89050  0.59329  0.09937  1.0000
  H   H1075     1.0  0.73052  0.44541  0.30803  1.0000
  S   S140      1.0  0.49549  0.37346  0.45895  1.0000
  H   H1076     1.0  0.49634  0.43370  0.06345  1.0000
  C   C610      1.0  0.54321  0.53524  0.44169  1.0000
  C   C611      1.0  0.96798  0.44284  0.34469  1.0000
  H   H1077     1.0  0.76223  0.45917  0.28067  1.0000
  H   H1078     1.0  0.62667  0.56092  0.38671  1.0000
  H   H1079     1.0  0.90075  0.59809  0.15054  1.0000
  H   H1080     1.0  0.51711  0.55496  0.08881  1.0000
  H   H1081     1.0  0.62624  0.52558  0.38831  1.0000
  H   H1082     1.0  0.52498  0.50011  0.00929  1.0000
  H   H1083     1.0  0.59855  0.64919  0.04600  1.0000
  H   H1084     1.0  0.82514  0.48872  0.11466  1.0000
  H   H1085     1.0  0.87641  0.33588  0.43130  1.0000
  H   H1086     1.0  0.59847  0.51323  0.03130  1.0000
  H   H1087     1.0  0.75975  0.37635  0.18113  1.0000
  H   H1088     1.0  0.86934  0.53525  0.42195  1.0000
  H   H1089     1.0  0.95900  0.40651  0.22761  1.0000
  H   H1090     1.0  0.73351  0.47277  0.46841  1.0000
  C   C612      1.0  0.93422  0.36971  0.45903  1.0000
  H   H1091     1.0  0.51225  0.53044  0.03532  1.0000
  C   C613      1.0  0.92262  0.61482  0.08948  1.0000
  C   C614      1.0  0.63772  0.62513  0.09065  1.0000
  H   H1092     1.0  0.80564  0.62548  0.23826  1.0000
  H   H1093     1.0  0.88715  0.57362  0.43539  1.0000
  H   H1094     1.0  0.96315  0.51395  0.26375  1.0000
  H   H1095     1.0  0.78040  0.51106  0.30139  1.0000
  C   C615      1.0  0.76946  0.55044  0.26345  1.0000
  H   H1096     1.0  0.92164  0.40087  0.37951  1.0000
  H   H1097     1.0  0.92336  0.33892  0.41887  1.0000
  C   C616      1.0  0.88049  0.39892  0.39292  1.0000
  H   H1098     1.0  0.86371  0.50451  0.12664  1.0000
  C   C617      1.0  0.84032  0.58371  0.02448  1.0000
  H   H1099     1.0  0.85443  0.53770  0.47818  1.0000
  H   H1100     1.0  0.51433  0.57844  0.23828  1.0000
  H   H1101     1.0  0.69384  0.53455  0.19136  1.0000
  H   H1102     1.0  0.54512  0.46962  0.44508  1.0000
  H   H1103     1.0  0.82191  0.60660  0.25953  1.0000
  H   H1104     1.0  0.57092  0.53333  0.38626  1.0000
  H   H1105     1.0  0.85393  0.50010  0.08418  1.0000
  C   C618      1.0  0.83713  0.56875  0.46857  1.0000
  C   C619      1.0  0.84409  0.54382  0.45841  1.0000
  C   C620      1.0  0.57303  0.42850  0.41113  1.0000
  S   S141      1.0  0.95250  0.35901  0.33172  1.0000
  Fe  Fe72      1.0  0.50385  0.63277  0.14759  1.0000
  C   C621      1.0  0.63381  0.66085  0.47040  1.0000
  H   H1106     1.0  0.84069  0.60545  0.02551  1.0000
  H   H1107     1.0  0.55193  0.48860  0.00567  1.0000
  C   C622      1.0  0.54774  0.39926  0.05900  1.0000
  H   H1108     1.0  0.64695  0.54760  0.08183  1.0000
  H   H1109     1.0  0.84384  0.54015  0.13159  1.0000
  H   H1110     1.0  0.82542  0.57166  0.44738  1.0000
  H   H1111     1.0  0.79445  0.40556  0.19781  1.0000
  H   H1112     1.0  0.74875  0.54058  0.32310  1.0000
  C   C623      1.0  0.61364  0.53675  0.38042  1.0000
  H   H1113     1.0  0.83619  0.53648  0.08910  1.0000
  C   C624      1.0  0.97726  0.46105  0.37666  1.0000
  N   N36       1.0  0.73842  0.52628  0.27321  1.0000
  C   C625      1.0  0.73059  0.53482  0.30518  1.0000
  C   C626      1.0  0.77317  0.58189  0.25728  1.0000
  C   C627      1.0  0.71542  0.52287  0.24843  1.0000
  C   C628      1.0  0.54388  0.50006  0.02227  1.0000
  C   C629      1.0  0.70035  0.51126  0.32050  1.0000
  C   C630      1.0  0.72307  0.51986  0.21275  1.0000
  C   C631      1.0  0.69605  0.52139  0.35388  1.0000
  C   C632      1.0  0.69778  0.51524  0.18998  1.0000
  H   H1114     1.0  0.72933  0.55566  0.30260  1.0000
  H   H1115     1.0  0.77729  0.54354  0.24167  1.0000
  H   H1116     1.0  0.71092  0.54186  0.24984  1.0000
  H   H1117     1.0  0.69344  0.50264  0.25386  1.0000
  H   H1118     1.0  0.71487  0.47778  0.27731  1.0000
  H   H1119     1.0  0.62404  0.50724  0.07777  1.0000
  H   H1120     1.0  0.68134  0.50806  0.30512  1.0000
  H   H1121     1.0  0.69907  0.48927  0.32360  1.0000
  H   H1122     1.0  0.72671  0.50050  0.20975  1.0000
  C   C633      1.0  0.61925  0.63756  0.08410  1.0000
  H   H1123     1.0  0.69713  0.54345  0.35242  1.0000
  H   H1124     1.0  0.67382  0.50475  0.36392  1.0000
  H   H1125     1.0  0.71356  0.52320  0.37086  1.0000
  C   C634      1.0  0.75409  0.46332  0.30393  1.0000
  H   H1126     1.0  0.84046  0.57766  0.99874  1.0000
  H   H1127     1.0  0.54541  0.39200  0.00735  1.0000
  N   N37       1.0  0.94184  0.44179  0.32697  1.0000
  H   H1128     1.0  0.86575  0.56359  0.04031  1.0000
  C   C635      1.0  0.93217  0.41862  0.30058  1.0000
  C   C636      1.0  0.95169  0.47253  0.31331  1.0000
  C   C637      1.0  0.91560  0.43323  0.34932  1.0000
  C   C638      1.0  0.90362  0.40290  0.36727  1.0000
  H   H1129     1.0  0.70413  0.51346  0.16471  1.0000
  C   C639      1.0  0.92922  0.47510  0.29038  1.0000
  C   C640      1.0  0.95520  0.42549  0.27303  1.0000
  H   H1130     1.0  0.61126  0.53469  0.35373  1.0000
  C   C641      1.0  0.78361  0.38331  0.18574  1.0000
  H   H1131     1.0  0.51883  0.47391  0.46888  1.0000
  C   C642      1.0  0.80199  0.62936  0.48685  1.0000
  H   H1132     1.0  0.55166  0.38981  0.08136  1.0000
  H   H1133     1.0  0.92700  0.39658  0.31086  1.0000
  H   H1134     1.0  0.91082  0.41461  0.28962  1.0000
  H   H1135     1.0  0.59191  0.57252  0.00062  1.0000
  C   C643      1.0  0.57439  0.43092  0.05455  1.0000
  H   H1136     1.0  0.92096  0.45122  0.36739  1.0000
  H   H1137     1.0  0.89613  0.43128  0.33559  1.0000
  C   C644      1.0  0.58489  0.52408  0.43355  1.0000
  H   H1138     1.0  0.89246  0.38416  0.34983  1.0000
  H   H1139     1.0  0.67677  0.49428  0.19613  1.0000
  H   H1140     1.0  0.83840  0.62202  0.47473  1.0000
  H   H1141     1.0  0.90806  0.46930  0.30319  1.0000
  H   H1142     1.0  0.92377  0.46022  0.26908  1.0000
  H   H1143     1.0  0.91697  0.37626  0.45493  1.0000
  H   H1144     1.0  0.57066  0.44204  0.03350  1.0000
  H   H1145     1.0  0.93632  0.34674  0.02006  1.0000
  C   C645      1.0  0.73822  0.49692  0.27555  1.0000
  S   S142      1.0  0.62679  0.47815  0.42534  1.0000
  H   H1146     1.0  0.52288  0.48864  0.07066  1.0000
  H   H1147     1.0  0.59367  0.50913  0.44076  1.0000
  C   C646      1.0  0.54892  0.58675  0.43332  1.0000
  C   C647      1.0  0.94227  0.50712  0.27774  1.0000
  C   C648      1.0  0.80379  0.60335  0.24267  1.0000
  H   H1148     1.0  0.66360  0.60586  0.07123  1.0000
  H   H1149     1.0  0.74842  0.49704  0.32767  1.0000
  S   S143      1.0  0.70541  0.52589  0.46161  1.0000
  C   C649      1.0  0.93755  0.60352  0.06487  1.0000
  C   C650      1.0  0.88461  0.56145  0.10080  1.0000
  H   H1150     1.0  0.57130  0.57634  0.47010  1.0000
  C   C651      1.0  0.88624  0.60170  0.13322  1.0000
  H   H1151     1.0  0.52752  0.40137  0.06253  1.0000
  H   H1152     1.0  0.93770  0.62188  0.11099  1.0000
  C   C652      1.0  0.85170  0.53680  0.10789  1.0000
  H   H1153     1.0  0.86211  0.40135  0.38199  1.0000
  H   H1154     1.0  0.53847  0.56647  0.01809  1.0000
  C   C653      1.0  0.54456  0.37928  0.02945  1.0000
  H   H1155     1.0  0.78949  0.62058  0.46390  1.0000
  C   C654      1.0  0.84858  0.50568  0.10832  1.0000
  C   C655      1.0  0.94267  0.40059  0.24771  1.0000
  H   H1156     1.0  0.89935  0.55969  0.11935  1.0000
  H   H1157     1.0  0.89063  0.55475  0.07780  1.0000
  C   C656      1.0  0.86880  0.59619  0.07730  1.0000
  C   C657      1.0  0.58265  0.52205  0.39622  1.0000
  H   H1158     1.0  0.60297  0.54687  0.44057  1.0000
  H   H1159     1.0  0.94301  0.33371  0.45134  1.0000
  C   C658      1.0  0.53107  0.47910  0.05186  1.0000
  C   C659      1.0  0.96742  0.62924  0.05271  1.0000
  H   H1160     1.0  0.50906  0.43215  0.40566  1.0000
  C   C660      1.0  0.97375  0.34028  0.38388  1.0000
  S   S144      1.0  0.52810  0.64738  0.09985  1.0000
  H   H1161     1.0  0.58484  0.57722  0.42970  1.0000
  H   H1162     1.0  0.92129  0.39747  0.23764  1.0000
  H   H1163     1.0  0.92324  0.59262  0.04361  1.0000
  C   C661      1.0  0.86133  0.34229  0.19580  1.0000
  H   H1164     1.0  0.87575  0.34760  0.17401  1.0000
  H   H1165     1.0  0.95943  0.39301  0.41584  1.0000
  S   S145      1.0  0.54610  0.64857  0.17622  1.0000
  N   N38       1.0  0.56864  0.53168  0.02860  1.0000
  C   C662      1.0  0.86749  0.58587  0.04193  1.0000
  H   H1166     1.0  0.76711  0.47246  0.48007  1.0000
  H   H1167     1.0  0.52278  0.48464  0.39539  1.0000
  H   H1168     1.0  0.81917  0.56616  0.03578  1.0000
  H   H1169     1.0  0.52865  0.58059  0.44819  1.0000
  S   S146      1.0  0.87794  0.33140  0.28403  1.0000
  C   C663      1.0  0.56441  0.56963  0.44471  1.0000
  H   H1170     1.0  0.77476  0.35999  0.23055  1.0000
  H   H1171     1.0  0.80673  0.59457  0.21922  1.0000
  H   H1172     1.0  0.93890  0.37095  0.48532  1.0000
  H   H1173     1.0  0.96957  0.41577  0.45182  1.0000
  H   H1174     1.0  0.87035  0.33710  0.00693  1.0000
  H   H1175     1.0  0.85881  0.59020  0.47011  1.0000
  C   C664      1.0  0.78602  0.36061  0.20748  1.0000
  C   C665      1.0  0.55096  0.42021  0.47415  1.0000
  H   H1176     1.0  0.98235  0.64155  0.07329  1.0000
  N   N39       1.0  0.55626  0.51586  0.45158  1.0000
  H   H1177     1.0  0.78776  0.57319  0.47381  1.0000
  C   C666      1.0  0.51132  0.47428  0.41840  1.0000
  C   C667      1.0  0.77050  0.51641  0.48127  1.0000
  H   H1178     1.0  0.52270  0.52909  0.45629  1.0000
  C   C668      1.0  0.96294  0.39313  0.44234  1.0000
  H   H1179     1.0  0.97896  0.62025  0.03753  1.0000
  C   C669      1.0  0.91802  0.33716  0.03833  1.0000
  H   H1180     1.0  0.62408  0.64067  0.45472  1.0000
  H   H1181     1.0  0.90473  0.63765  0.18876  1.0000
  H   H1182     1.0  0.50585  0.57166  0.05760  1.0000
  C   C670      1.0  0.98833  0.60396  0.12625  1.0000
  H   H1183     1.0  0.50436  0.60496  0.25401  1.0000
  H   H1184     1.0  0.98412  0.58697  0.10840  1.0000
  H   H1185     1.0  0.77853  0.33158  0.16629  1.0000
  C   C671      1.0  0.89279  0.63441  0.13775  1.0000
  C   C672      1.0  0.51720  0.33422  0.99692  1.0000
  H   H1186     1.0  0.82449  0.33924  0.16905  1.0000
  H   H1187     1.0  0.87698  0.63851  0.12346  1.0000
  H   H1188     1.0  0.56542  0.35029  0.98953  1.0000
  H   H1189     1.0  0.98817  0.45266  0.32887  1.0000
  H   H1190     1.0  0.98158  0.48416  0.37283  1.0000
  H   H1191     1.0  0.51208  0.43783  0.02352  1.0000
  H   H1192     1.0  0.96374  0.64514  0.03796  1.0000
  C   C673      1.0  0.88907  0.64078  0.17301  1.0000
  H   H1193     1.0  0.91604  0.65088  0.13037  1.0000
  H   H1194     1.0  0.78256  0.33673  0.26896  1.0000
  C   C674      1.0  0.50483  0.44864  0.04200  1.0000
  H   H1195     1.0  0.59437  0.45767  0.48648  1.0000
  H   H1196     1.0  0.51605  0.34124  0.08030  1.0000
  H   H1197     1.0  0.80828  0.62002  0.99156  1.0000
  H   H1198     1.0  0.54021  0.33244  0.05879  1.0000
  H   H1199     1.0  0.81654  0.65400  0.48441  1.0000
  H   H1200     1.0  0.49743  0.47861  0.30556  1.0000
  C   C675      1.0  0.49557  0.58302  0.24166  1.0000
  S   S147      1.0  0.64512  0.46627  0.98718  1.0000
  Fe  Fe73      1.0  0.67598  0.51694  0.98694  1.0000
  H   H1201     1.0  0.75483  0.52480  0.48591  1.0000
  C   C676      1.0  0.75277  0.48242  0.48539  1.0000
  Fe  Fe74      1.0  0.72189  0.56648  0.94291  1.0000
  H   H1202     1.0  0.93610  0.40837  0.79915  1.0000
  S   S148      1.0  0.74007  0.57427  0.89017  1.0000
  C   C677      1.0  0.88739  0.42680  0.65874  1.0000
  S   S149      1.0  0.65593  0.52624  0.51138  1.0000
  S   S150      1.0  0.63943  0.59259  0.50858  1.0000
  Fe  Fe75      1.0  0.70527  0.54102  0.51264  1.0000
  S   S151      1.0  0.72467  0.52296  0.55018  1.0000
  C   C678      1.0  0.79408  0.49621  0.92266  1.0000
  H   H1203     1.0  0.57646  0.51429  0.96372  1.0000
  H   H1204     1.0  0.55699  0.38121  0.93742  1.0000
  S   S152      1.0  0.67206  0.54746  0.95106  1.0000
  H   H1205     1.0  0.89563  0.41761  0.63959  1.0000
  H   H1206     1.0  0.88558  0.56249  0.57857  1.0000
  Fe  Fe76      1.0  0.86023  0.35371  0.81437  1.0000
  S   S153      1.0  0.87409  0.40329  0.81406  1.0000
  Fe  Fe77      1.0  0.85988  0.57038  0.75792  1.0000
  S   S154      1.0  0.82483  0.53884  0.72331  1.0000
  S   S155      1.0  0.84810  0.57466  0.81109  1.0000
  Fe  Fe78      1.0  0.91195  0.58434  0.70747  1.0000
  S   S156      1.0  0.87896  0.55306  0.67076  1.0000
  S   S157      1.0  0.96334  0.60594  0.69992  1.0000
  Fe  Fe79      1.0  0.85064  0.57330  0.68501  1.0000
  S   S158      1.0  0.83060  0.59312  0.65054  1.0000
  Fe  Fe80      1.0  0.85655  0.52160  0.71274  1.0000
  S   S159      1.0  0.83865  0.47131  0.70996  1.0000
  S   S160      1.0  0.88461  0.60640  0.72020  1.0000
  S   S161      1.0  0.89061  0.55141  0.74894  1.0000
  H   H1207     1.0  0.60901  0.40767  0.95923  1.0000
  C   C679      1.0  0.85669  0.56072  0.53931  1.0000
  S   S162      1.0  0.51107  0.39944  0.93548  1.0000
  H   H1208     1.0  0.85892  0.49816  0.80268  1.0000
  H   H1209     1.0  0.94498  0.41464  0.71088  1.0000
  C   C680      1.0  0.86393  0.42135  0.78446  1.0000
  C   C681      1.0  0.83979  0.40548  0.76351  1.0000
  C   C682      1.0  0.83197  0.42104  0.74107  1.0000
  C   C683      1.0  0.84857  0.45245  0.73895  1.0000
  C   C684      1.0  0.87295  0.46817  0.75957  1.0000
  C   C685      1.0  0.88040  0.45274  0.78243  1.0000
  H   H1210     1.0  0.82687  0.38129  0.76495  1.0000
  H   H1211     1.0  0.81295  0.40863  0.72532  1.0000
  H   H1212     1.0  0.88612  0.49225  0.75789  1.0000
  H   H1213     1.0  0.89918  0.46517  0.79849  1.0000
  H   H1214     1.0  0.84585  0.63647  0.79904  1.0000
  H   H1215     1.0  0.77524  0.63640  0.86768  1.0000
  H   H1216     1.0  0.83775  0.51929  0.87579  1.0000
  H   H1217     1.0  0.57873  0.55434  0.92900  1.0000
  H   H1218     1.0  0.88580  0.49023  0.84766  1.0000
  C   C686      1.0  0.75507  0.54327  0.57679  1.0000
  C   C687      1.0  0.76571  0.52754  0.59517  1.0000
  C   C688      1.0  0.78941  0.54258  0.61720  1.0000
  C   C689      1.0  0.80244  0.57351  0.62134  1.0000
  C   C690      1.0  0.79217  0.58935  0.60260  1.0000
  C   C691      1.0  0.76860  0.57433  0.58037  1.0000
  H   H1219     1.0  0.75540  0.50351  0.59245  1.0000
  H   H1220     1.0  0.79726  0.53020  0.63136  1.0000
  H   H1221     1.0  0.80220  0.61332  0.60563  1.0000
  H   H1222     1.0  0.76056  0.58667  0.56642  1.0000
  C   C692      1.0  0.76825  0.57030  0.86861  1.0000
  C   C693      1.0  0.79080  0.56736  0.88424  1.0000
  C   C694      1.0  0.81461  0.56811  0.86623  1.0000
  C   C695      1.0  0.81590  0.57085  0.83225  1.0000
  C   C696      1.0  0.79265  0.57236  0.81653  1.0000
  C   C697      1.0  0.76934  0.57257  0.83458  1.0000
  H   H1223     1.0  0.79047  0.56558  0.91030  1.0000
  H   H1224     1.0  0.83246  0.56707  0.87883  1.0000
  H   H1225     1.0  0.79332  0.57448  0.79056  1.0000
  H   H1226     1.0  0.75230  0.57512  0.82215  1.0000
  H   H1227     1.0  0.58210  0.54455  0.49135  1.0000
  H   H1228     1.0  0.85610  0.56954  0.59093  1.0000
  C   C698      1.0  0.65462  0.63067  0.56273  1.0000
  C   C699      1.0  0.63265  0.61245  0.54035  1.0000
  H   H1229     1.0  0.85667  0.60017  0.52422  1.0000
  H   H1230     1.0  0.97229  0.45168  0.72263  1.0000
  C   C700      1.0  0.90157  0.42666  0.69186  1.0000
  H   H1231     1.0  0.67638  0.63226  0.56191  1.0000
  C   C701      1.0  0.82859  0.64814  0.84113  1.0000
  C   C702      1.0  0.97656  0.36468  0.89528  1.0000
  C   C703      1.0  0.54955  0.41822  0.94588  1.0000
  H   H1232     1.0  0.50916  0.65958  0.49376  1.0000
  H   H1233     1.0  0.93303  0.40740  0.65265  1.0000
  C   C704      1.0  0.81761  0.64617  0.91180  1.0000
  H   H1234     1.0  0.90290  0.48346  0.68993  1.0000
  C   C705      1.0  0.56668  0.40399  0.94596  1.0000
  H   H1235     1.0  0.95821  0.62857  0.63575  1.0000
  H   H1236     1.0  0.72168  0.62317  0.87707  1.0000
  H   H1237     1.0  0.84637  0.38449  0.66871  1.0000
  N   N40       1.0  0.93460  0.44885  0.69615  1.0000
  H   H1238     1.0  0.91547  0.52840  0.80622  1.0000
  H   H1239     1.0  0.81777  0.36264  0.93681  1.0000
  C   C706      1.0  0.78383  0.65826  0.88020  1.0000
  H   H1240     1.0  0.61279  0.53968  0.98023  1.0000
  H   H1241     1.0  0.77945  0.46787  0.82938  1.0000
  H   H1242     1.0  0.58732  0.49363  0.55102  1.0000
  H   H1243     1.0  0.89697  0.40326  0.69527  1.0000
  C   C707      1.0  0.98838  0.62201  0.66601  1.0000
  H   H1244     1.0  0.83735  0.64347  0.73338  1.0000
  C   C708      1.0  0.57338  0.50071  0.50395  1.0000
  H   H1245     1.0  0.88832  0.42984  0.71122  1.0000
  C   C709      1.0  0.58005  0.50853  0.53975  1.0000
  C   C710      1.0  0.96421  0.43410  0.61525  1.0000
  C   C711      1.0  0.77440  0.46925  0.76610  1.0000
  H   H1246     1.0  0.82974  0.63069  0.85567  1.0000
  H   H1247     1.0  0.75708  0.63390  0.92213  1.0000
  C   C712      1.0  0.83049  0.33184  0.95751  1.0000
  S   S163      1.0  0.86583  0.33602  0.86205  1.0000
  H   H1248     1.0  0.55973  0.50546  0.55260  1.0000
  H   H1249     1.0  0.93562  0.49853  0.66410  1.0000
  C   C713      1.0  0.62080  0.64633  0.58728  1.0000
  C   C714      1.0  0.60912  0.44881  0.96924  1.0000
  H   H1250     1.0  0.60217  0.48610  0.97646  1.0000
  H   H1251     1.0  0.83443  0.48618  0.89296  1.0000
  H   H1252     1.0  0.79899  0.39315  0.82398  1.0000
  H   H1253     1.0  0.84182  0.53635  0.54304  1.0000
  C   C715      1.0  0.59937  0.55672  0.94027  1.0000
  H   H1254     1.0  0.75364  0.45089  0.77712  1.0000
  C   C716      1.0  0.83920  0.57644  0.52843  1.0000
  H   H1255     1.0  0.94709  0.43566  0.60037  1.0000
  C   C717      1.0  0.72984  0.64385  0.89179  1.0000
  C   C718      1.0  0.94769  0.43619  0.71997  1.0000
  H   H1256     1.0  0.80098  0.62341  0.90328  1.0000
  H   H1257     1.0  0.88328  0.51807  0.87174  1.0000
  H   H1258     1.0  0.50948  0.64714  0.53470  1.0000
  C   C719      1.0  0.59170  0.53778  0.97100  1.0000
  H   H1259     1.0  0.77145  0.49127  0.93070  1.0000
  H   H1260     1.0  0.83988  0.64775  0.90859  1.0000
  C   C720      1.0  0.60463  0.61122  0.54187  1.0000
  H   H1261     1.0  0.91255  0.55666  0.82945  1.0000
  H   H1262     1.0  0.80147  0.48365  0.93842  1.0000
  C   C721      1.0  0.95464  0.42874  0.65075  1.0000
  C   C722      1.0  0.76034  0.65278  0.90662  1.0000
  H   H1263     1.0  0.78664  0.52848  0.52995  1.0000
  H   H1264     1.0  0.81253  0.39749  0.86502  1.0000
  H   H1265     1.0  0.85754  0.52744  0.82332  1.0000
  H   H1266     1.0  0.61051  0.54911  0.92266  1.0000
  C   C723      1.0  0.93927  0.47804  0.70993  1.0000
  H   H1267     1.0  0.94323  0.46378  0.64611  1.0000
  H   H1268     1.0  0.51689  0.34820  0.97647  1.0000
  H   H1269     1.0  0.82597  0.63840  0.69170  1.0000
  H   H1270     1.0  0.90911  0.41374  0.75300  1.0000
  C   C724      1.0  0.80187  0.58042  0.49601  1.0000
  C   C725      1.0  0.92779  0.49545  0.68948  1.0000
  C   C726      1.0  0.93872  0.52672  0.70330  1.0000
  H   H1271     1.0  0.88843  0.59803  0.56939  1.0000
  C   C727      1.0  0.64880  0.64757  0.58574  1.0000
  C   C728      1.0  0.87263  0.57356  0.57146  1.0000
  H   H1272     1.0  0.96424  0.37654  0.89326  1.0000
  H   H1273     1.0  0.51225  0.56115  0.69841  1.0000
  H   H1274     1.0  0.92756  0.47429  0.73347  1.0000
  H   H1275     1.0  0.96354  0.49332  0.71502  1.0000
  H   H1276     1.0  0.84406  0.40550  0.63500  1.0000
  H   H1277     1.0  0.86823  0.33084  0.93587  1.0000
  H   H1278     1.0  0.54952  0.45909  0.95642  1.0000
  C   C729      1.0  0.98052  0.63166  0.63791  1.0000
  H   H1279     1.0  0.78424  0.49935  0.87312  1.0000
  H   H1280     1.0  0.80189  0.45165  0.78265  1.0000
  H   H1281     1.0  0.97180  0.42597  0.66417  1.0000
  H   H1282     1.0  0.78589  0.57479  0.51652  1.0000
  C   C730      1.0  0.94681  0.41363  0.77486  1.0000
  H   H1283     1.0  0.93824  0.44961  0.76748  1.0000
  H   H1284     1.0  0.52478  0.58463  0.73382  1.0000
  H   H1285     1.0  0.84360  0.41781  0.67547  1.0000
  H   H1286     1.0  0.80869  0.65164  0.72054  1.0000
  H   H1287     1.0  0.92858  0.53793  0.68951  1.0000
  H   H1288     1.0  0.93218  0.52552  0.72907  1.0000
  C   C731      1.0  0.93368  0.42900  0.75435  1.0000
  H   H1289     1.0  0.58735  0.59733  0.52485  1.0000
  H   H1290     1.0  0.81819  0.33653  0.90828  1.0000
  C   C732      1.0  0.59239  0.46335  0.96788  1.0000
  C   C733      1.0  0.82119  0.61510  0.49404  1.0000
  H   H1291     1.0  0.82197  0.49060  0.77096  1.0000
  H   H1292     1.0  0.80605  0.63817  0.83000  1.0000
  C   C734      1.0  0.56264  0.44799  0.95665  1.0000
  H   H1293     1.0  0.57697  0.62634  0.56592  1.0000
  H   H1294     1.0  0.59838  0.53209  0.54266  1.0000
  C   C735      1.0  0.59864  0.62777  0.56520  1.0000
  H   H1295     1.0  0.71328  0.63919  0.91141  1.0000
  H   H1296     1.0  0.49934  0.53212  0.75062  1.0000
  S   S164      1.0  0.73246  0.60152  0.98157  1.0000
  H   H1297     1.0  0.77553  0.46332  0.74051  1.0000
  H   H1298     1.0  0.77626  0.46268  0.88553  1.0000
  H   H1299     1.0  0.83248  0.62458  0.51744  1.0000
  Fe  Fe81      1.0  0.67083  0.57362  0.49523  1.0000
  H   H1300     1.0  0.97573  0.47403  0.66887  1.0000
  H   H1301     1.0  0.83124  0.44797  0.81934  1.0000
  H   H1302     1.0  0.77345  0.49033  0.76660  1.0000
  H   H1303     1.0  0.77541  0.42387  0.83658  1.0000
  H   H1304     1.0  0.80971  0.52064  0.92546  1.0000
  H   H1305     1.0  0.87423  0.56464  0.52126  1.0000
  Fe  Fe82      1.0  0.50884  0.63946  0.65227  1.0000
  H   H1306     1.0  0.89283  0.44954  0.65117  1.0000
  C   C736      1.0  0.95232  0.45538  0.66512  1.0000
  H   H1307     1.0  0.55639  0.54613  0.98472  1.0000
  H   H1308     1.0  0.54389  0.51920  0.50093  1.0000
  C   C737      1.0  0.81013  0.61850  0.96496  1.0000
  C   C738      1.0  0.59616  0.41906  0.95825  1.0000
  H   H1309     1.0  0.61496  0.58071  0.94571  1.0000
  S   S165      1.0  0.55095  0.65408  0.68091  1.0000
  H   H1310     1.0  0.93250  0.53905  0.84556  1.0000
  H   H1311     1.0  0.97133  0.42851  0.77800  1.0000
  H   H1312     1.0  0.80457  0.50564  0.81894  1.0000
  C   C739      1.0  0.79466  0.39689  0.84943  1.0000
  H   H1313     1.0  0.84071  0.45367  0.86061  1.0000
  H   H1314     1.0  0.78848  0.42806  0.87792  1.0000
  H   H1315     1.0  0.82571  0.57654  0.54957  1.0000
  H   H1316     1.0  0.55572  0.47680  0.50249  1.0000
  H   H1317     1.0  0.77281  0.37765  0.85708  1.0000
  N   N41       1.0  0.74132  0.56137  0.70707  1.0000
  C   C740      1.0  0.71600  0.55667  0.68492  1.0000
  C   C741      1.0  0.73182  0.55907  0.74214  1.0000
  C   C742      1.0  0.76698  0.59282  0.70122  1.0000
  C   C743      1.0  0.75255  0.53993  0.69992  1.0000
  C   C744      1.0  0.72917  0.50611  0.70104  1.0000
  C   C745      1.0  0.72270  0.55862  0.64814  1.0000
  C   C746      1.0  0.79411  0.60404  0.72459  1.0000
  C   C747      1.0  0.69871  0.53612  0.75062  1.0000
  C   C748      1.0  0.69396  0.53226  0.78720  1.0000
  C   C749      1.0  0.74199  0.48745  0.68677  1.0000
  C   C750      1.0  0.69489  0.55129  0.62821  1.0000
  C   C751      1.0  0.81789  0.63639  0.71701  1.0000
  H   H1318     1.0  0.70890  0.57340  0.69056  1.0000
  H   H1319     1.0  0.69573  0.53457  0.68899  1.0000
  H   H1320     1.0  0.74647  0.55416  0.75775  1.0000
  H   H1321     1.0  0.73503  0.58100  0.75078  1.0000
  H   H1322     1.0  0.75878  0.60918  0.70239  1.0000
  H   H1323     1.0  0.77638  0.59493  0.67647  1.0000
  H   H1324     1.0  0.76403  0.54513  0.67606  1.0000
  H   H1325     1.0  0.77018  0.54311  0.71746  1.0000
  H   H1326     1.0  0.70872  0.50059  0.68712  1.0000
  H   H1327     1.0  0.72305  0.49889  0.72654  1.0000
  H   H1328     1.0  0.74033  0.58153  0.64119  1.0000
  H   H1329     1.0  0.72995  0.54246  0.64104  1.0000
  H   H1330     1.0  0.80502  0.59021  0.72238  1.0000
  H   H1331     1.0  0.78721  0.60354  0.75008  1.0000
  H   H1332     1.0  0.68376  0.54422  0.74123  1.0000
  H   H1333     1.0  0.69128  0.51380  0.74007  1.0000
  H   H1334     1.0  0.69986  0.55395  0.79887  1.0000
  H   H1335     1.0  0.67004  0.51610  0.79254  1.0000
  H   H1336     1.0  0.70782  0.52342  0.79786  1.0000
  H   H1337     1.0  0.72548  0.46323  0.68956  1.0000
  H   H1338     1.0  0.74674  0.49233  0.66058  1.0000
  H   H1339     1.0  0.76297  0.49223  0.69929  1.0000
  H   H1340     1.0  0.67670  0.52799  0.63298  1.0000
  H   H1341     1.0  0.68678  0.56714  0.63383  1.0000
  H   H1342     1.0  0.70053  0.55321  0.60203  1.0000
  C   C752      1.0  0.81385  0.64693  0.94901  1.0000
  C   C753      1.0  0.91285  0.53525  0.83093  1.0000
  S   S166      1.0  0.72062  0.58898  0.49909  1.0000
  N   N42       1.0  0.82602  0.48330  0.84126  1.0000
  C   C754      1.0  0.80221  0.48290  0.81960  1.0000
  C   C755      1.0  0.82422  0.49432  0.87475  1.0000
  C   C756      1.0  0.85612  0.50540  0.82699  1.0000
  C   C757      1.0  0.82429  0.45319  0.84283  1.0000
  C   C758      1.0  0.79375  0.42605  0.85238  1.0000
  C   C759      1.0  0.80205  0.47322  0.78408  1.0000
  C   C760      1.0  0.88407  0.51086  0.84667  1.0000
  C   C761      1.0  0.79277  0.48685  0.88736  1.0000
  C   C762      1.0  0.85328  0.40737  0.65968  1.0000
  H   H1343     1.0  0.78595  0.62483  0.50695  1.0000
  H   H1344     1.0  0.94250  0.39230  0.76350  1.0000
  S   S167      1.0  0.53317  0.65788  0.60514  1.0000
  C   C763      1.0  0.56354  0.52135  0.48721  1.0000
  H   H1345     1.0  0.54244  0.41707  0.49861  1.0000
  H   H1346     1.0  0.74383  0.47649  0.51044  1.0000
  H   H1347     1.0  0.82967  0.61557  0.95961  1.0000
  C   C764      1.0  0.96603  0.33722  0.87878  1.0000
  H   H1348     1.0  0.78934  0.59852  0.95632  1.0000
  C   C765      1.0  0.50468  0.56813  0.72024  1.0000
  S   S168      1.0  0.88511  0.33556  0.78619  1.0000
  C   C766      1.0  0.82995  0.35086  0.92942  1.0000
  N   N43       1.0  0.81909  0.56379  0.49923  1.0000
  H   H1349     1.0  0.59407  0.50340  0.49267  1.0000
  C   C767      1.0  0.79680  0.53121  0.50548  1.0000
  C   C768      1.0  0.85127  0.65670  0.81358  1.0000
  H   H1350     1.0  0.85309  0.36788  0.92218  1.0000
  H   H1351     1.0  0.98610  0.45508  0.61252  1.0000
  H   H1352     1.0  0.80784  0.51745  0.50605  1.0000
  H   H1353     1.0  0.79428  0.64914  0.95584  1.0000
  H   H1354     1.0  0.59105  0.64640  0.49263  1.0000
  H   H1355     1.0  0.64451  0.65658  0.49147  1.0000
  S   S169      1.0  0.72520  0.53448  0.97717  1.0000
  H   H1356     1.0  0.84141  0.34709  0.97817  1.0000
  H   H1357     1.0  0.96348  0.54067  0.70121  1.0000
  H   H1358     1.0  0.89722  0.33758  0.98019  1.0000
  H   H1359     1.0  0.96666  0.41514  0.60610  1.0000
  H   H1360     1.0  0.66624  0.66183  0.60249  1.0000
  H   H1361     1.0  0.73125  0.66218  0.87640  1.0000
  Fe  Fe83      1.0  0.58382  0.89839  0.41319  1.0000
  S   S170      1.0  0.55037  0.86736  0.44968  1.0000
  S   S171      1.0  0.61732  0.94843  0.42458  1.0000
  Fe  Fe84      1.0  0.56645  0.84448  0.36392  1.0000
  S   S172      1.0  0.53342  0.81128  0.39923  1.0000
  S   S173      1.0  0.57056  0.83099  0.31133  1.0000
  Fe  Fe85      1.0  0.51936  0.84588  0.40726  1.0000
  Fe  Fe86      1.0  0.56780  0.83615  0.43790  1.0000
  H   H1362     1.0  0.65569  0.77199  0.10617  1.0000
  S   S174      1.0  0.55150  0.87878  0.37113  1.0000
  S   S175      1.0  0.60222  0.86754  0.40206  1.0000
  Fe  Fe87      1.0  0.53128  0.69186  0.10975  1.0000
  S   S176      1.0  0.57565  0.71124  0.13576  1.0000
  C   C769      1.0  0.60921  0.66726  0.48148  1.0000
  H   H1363     1.0  0.61994  0.89565  0.46675  1.0000
  Fe  Fe88      1.0  0.54733  0.69316  0.18117  1.0000
  S   S177      1.0  0.55210  0.71454  0.23209  1.0000
  H   H1364     1.0  0.59395  0.82936  0.05059  1.0000
  H   H1365     1.0  0.55375  0.83552  0.02748  1.0000
  H   H1366     1.0  0.51130  0.73890  0.13758  1.0000
  H   H1367     1.0  0.57348  0.70620  0.45577  1.0000
  C   C770      1.0  0.56505  0.79806  0.29014  1.0000
  C   C771      1.0  0.56902  0.79949  0.25631  1.0000
  C   C772      1.0  0.56506  0.77441  0.23816  1.0000
  C   C773      1.0  0.55706  0.74718  0.25358  1.0000
  C   C774      1.0  0.55293  0.74569  0.28744  1.0000
  C   C775      1.0  0.55674  0.77077  0.30555  1.0000
  H   H1368     1.0  0.57519  0.82030  0.24413  1.0000
  H   H1369     1.0  0.56860  0.77623  0.21235  1.0000
  H   H1370     1.0  0.54679  0.72491  0.29983  1.0000
  H   H1371     1.0  0.55354  0.76902  0.33148  1.0000
  H   H1372     1.0  0.53350  0.88670  0.25820  1.0000
  C   C776      1.0  0.58019  0.77362  0.01465  1.0000
  C   C777      1.0  0.56477  0.75124  0.03810  1.0000
  C   C778      1.0  0.53436  0.74066  0.04387  1.0000
  C   C779      1.0  0.51935  0.75205  0.02542  1.0000
  C   C780      1.0  0.53468  0.77421  0.00175  1.0000
  C   C781      1.0  0.51568  0.75854  0.15257  1.0000
  H   H1373     1.0  0.57641  0.74246  0.05207  1.0000
  H   H1374     1.0  0.50877  0.78592  0.24941  1.0000
  C   C782      1.0  0.57546  0.82613  0.06704  1.0000
  C   C783      1.0  0.62237  0.97491  0.45581  1.0000
  C   C784      1.0  0.59979  0.75160  0.44015  1.0000
  H   H1375     1.0  0.57769  0.86775  0.05168  1.0000
  H   H1376     1.0  0.54135  0.83950  0.06698  1.0000
  H   H1377     1.0  0.63325  0.97780  0.03696  1.0000
  N   N44       1.0  0.59578  0.81742  0.12073  1.0000
  C   C785      1.0  0.58791  0.83745  0.10142  1.0000
  C   C786      1.0  0.61321  0.83415  0.15036  1.0000
  C   C787      1.0  0.61641  0.81123  0.10015  1.0000
  C   C788      1.0  0.56866  0.78778  0.12993  1.0000
  C   C789      1.0  0.53880  0.78760  0.13618  1.0000
  H   H1378     1.0  0.52296  0.78306  0.98801  1.0000
  C   C790      1.0  0.63115  0.79503  0.11735  1.0000
  C   C791      1.0  0.59756  0.84528  0.17403  1.0000
  C   C792      1.0  0.61904  0.86455  0.20076  1.0000
  H   H1379     1.0  0.53906  0.90335  0.29779  1.0000
  H   H1380     1.0  0.66251  0.88806  0.45246  1.0000
  C   C793      1.0  0.64452  0.78255  0.09303  1.0000
  H   H1381     1.0  0.60809  0.86007  0.09842  1.0000
  H   H1382     1.0  0.57142  0.84153  0.11436  1.0000
  H   H1383     1.0  0.61910  0.81981  0.16526  1.0000
  H   H1384     1.0  0.63492  0.85394  0.14289  1.0000
  H   H1385     1.0  0.63490  0.83248  0.08984  1.0000
  H   H1386     1.0  0.60406  0.79721  0.07901  1.0000
  H   H1387     1.0  0.56339  0.77065  0.11072  1.0000
  H   H1388     1.0  0.57366  0.77828  0.15168  1.0000
  H   H1389     1.0  0.62323  0.77055  0.44079  1.0000
  S   S178      1.0  0.58775  0.81960  0.47649  1.0000
  H   H1390     1.0  0.61271  0.94184  0.99111  1.0000
  H   H1391     1.0  0.62665  0.76516  0.07766  1.0000
  H   H1392     1.0  0.61470  0.77622  0.13247  1.0000
  H   H1393     1.0  0.64967  0.81099  0.13319  1.0000
  H   H1394     1.0  0.58961  0.85915  0.16178  1.0000
  H   H1395     1.0  0.57842  0.82590  0.18594  1.0000
  H   H1396     1.0  0.63856  0.88481  0.19040  1.0000
  H   H1397     1.0  0.60724  0.87192  0.21774  1.0000
  H   H1398     1.0  0.62715  0.85153  0.21470  1.0000
  H   H1399     1.0  0.57898  0.94913  0.47779  1.0000
  H   H1400     1.0  0.52904  0.78932  0.11291  1.0000
  C   C794      1.0  0.62885  0.98509  0.01413  1.0000
  H   H1401     1.0  0.49734  0.73512  0.23514  1.0000
  H   H1402     1.0  0.68869  0.92542  0.46702  1.0000
  C   C795      1.0  0.53438  0.88274  0.28446  1.0000
  S   S179      1.0  0.50330  0.67566  0.15518  1.0000
  H   H1403     1.0  0.59306  0.74594  0.41447  1.0000
  H   H1404     1.0  0.61172  0.71748  0.44467  1.0000
  C   C796      1.0  0.66611  0.91095  0.45654  1.0000
  S   S180      1.0  0.51445  0.71438  0.07474  1.0000
  H   H1405     1.0  0.54172  0.80640  0.15156  1.0000
  H   H1406     1.0  0.51732  0.82459  0.28041  1.0000
  H   H1407     1.0  0.65127  0.68011  0.45645  1.0000
  H   H1408     1.0  0.52364  0.75620  0.17674  1.0000
  H   H1409     1.0  0.66137  0.80073  0.07741  1.0000
  C   C797      1.0  0.56121  0.84338  0.05258  1.0000
  H   H1410     1.0  0.64530  0.93266  0.48071  1.0000
  H   H1411     1.0  0.55846  0.80200  0.06741  1.0000
  H   H1412     1.0  0.66508  0.92049  0.43279  1.0000
  H   H1413     1.0  0.58482  0.75884  0.45147  1.0000
  C   C798      1.0  0.59716  0.72422  0.45770  1.0000
  H   H1414     1.0  0.55304  0.87826  0.28920  1.0000
  C   C799      1.0  0.56525  0.78529  0.99649  1.0000
  H   H1415     1.0  0.89414  0.66432  0.17549  1.0000
  C   C800      1.0  0.49721  0.82720  0.27800  1.0000
  H   H1416     1.0  0.51649  0.92641  0.99484  1.0000
  C   C801      1.0  0.60019  0.96978  0.47871  1.0000
  C   C802      1.0  0.61709  0.96454  0.98809  1.0000
  Fe  Fe89      1.0  0.57063  0.66496  0.12844  1.0000
  H   H1417     1.0  0.60392  0.78229  0.01102  1.0000
  H   H1418     1.0  0.51682  0.88108  0.01385  1.0000
  C   C803      1.0  0.64183  0.90976  0.47881  1.0000
  C   C804      1.0  0.50462  0.85651  0.29607  1.0000
  H   H1419     1.0  0.50649  0.85409  0.32233  1.0000
  H   H1420     1.0  0.49715  0.79170  0.32319  1.0000
  H   H1421     1.0  0.59994  0.67222  0.45979  1.0000
  H   H1422     1.0  0.49579  0.74393  0.02974  1.0000
  C   C805      1.0  0.49811  0.87911  0.99873  1.0000
  H   H1423     1.0  0.49551  0.83122  0.25180  1.0000
  Fe  Fe90      1.0  0.57786  0.89813  0.91468  1.0000
  S   S181      1.0  0.54605  0.86414  0.95026  1.0000
  S   S182      1.0  0.59833  0.94919  0.92356  1.0000
  Fe  Fe91      1.0  0.56493  0.84709  0.86341  1.0000
  S   S183      1.0  0.53207  0.81118  0.89658  1.0000
  S   S184      1.0  0.57643  0.83652  0.81267  1.0000
  Fe  Fe92      1.0  0.51545  0.84341  0.90740  1.0000
  Fe  Fe93      1.0  0.56596  0.83562  0.93572  1.0000
  H   H1424     1.0  0.63490  0.87225  0.50659  1.0000
  S   S185      1.0  0.54625  0.87811  0.87210  1.0000
  S   S186      1.0  0.59990  0.87080  0.90217  1.0000
  Fe  Fe94      1.0  0.53467  0.70083  0.61920  1.0000
  S   S187      1.0  0.57874  0.71962  0.64538  1.0000
  S   S188      1.0  0.51686  0.72467  0.58759  1.0000
  H   H1425     1.0  0.63418  0.76467  0.59441  1.0000
  Fe  Fe95      1.0  0.55054  0.69745  0.68986  1.0000
  S   S189      1.0  0.55088  0.71456  0.74179  1.0000
  H   H1426     1.0  0.65162  0.75974  0.53981  1.0000
  H   H1427     1.0  0.60767  0.79846  0.52949  1.0000
  H   H1428     1.0  0.64076  0.97955  0.57832  1.0000
  H   H1429     1.0  0.59393  0.70303  0.87257  1.0000
  C   C806      1.0  0.56886  0.80231  0.79324  1.0000
  C   C807      1.0  0.54890  0.77411  0.80613  1.0000
  C   C808      1.0  0.54351  0.74771  0.78986  1.0000
  C   C809      1.0  0.55774  0.74890  0.76029  1.0000
  C   C810      1.0  0.57749  0.77710  0.74720  1.0000
  C   C811      1.0  0.58292  0.80353  0.76353  1.0000
  H   H1430     1.0  0.53730  0.77266  0.82844  1.0000
  H   H1431     1.0  0.52798  0.72613  0.80021  1.0000
  H   H1432     1.0  0.58891  0.77858  0.72471  1.0000
  H   H1433     1.0  0.59837  0.82514  0.75316  1.0000
  H   H1434     1.0  0.62033  0.84920  0.62132  1.0000
  H   H1435     1.0  0.56452  0.87829  0.56778  1.0000
  C   C812      1.0  0.52110  0.75788  0.53395  1.0000
  C   C813      1.0  0.53699  0.75127  0.55702  1.0000
  C   C814      1.0  0.56826  0.76621  0.55549  1.0000
  C   C815      1.0  0.58346  0.78706  0.53062  1.0000
  H   H1436     1.0  0.49689  0.74655  0.53511  1.0000
  C   C816      1.0  0.53629  0.77883  0.50914  1.0000
  H   H1437     1.0  0.58068  0.76202  0.57380  1.0000
  H   H1438     1.0  0.50704  0.80020  0.80322  1.0000
  C   C817      1.0  0.61166  0.97357  0.95812  1.0000
  H   H1439     1.0  0.63895  0.73408  0.60873  1.0000
  H   H1440     1.0  0.51071  0.95435  0.79930  1.0000
  H   H1441     1.0  0.83817  0.77086  0.90132  1.0000
  H   H1442     1.0  0.56482  0.77621  0.63844  1.0000
  N   N45       1.0  0.59387  0.75791  0.89066  1.0000
  C   C818      1.0  0.56589  0.74491  0.91128  1.0000
  C   C819      1.0  0.61774  0.75531  0.90913  1.0000
  C   C820      1.0  0.60350  0.79020  0.88329  1.0000
  C   C821      1.0  0.58833  0.74127  0.85917  1.0000
  C   C822      1.0  0.56882  0.68184  0.51497  1.0000
  C   C823      1.0  0.63341  0.80799  0.86432  1.0000
  H   H1443     1.0  0.52860  0.91008  0.96376  1.0000
  H   H1444     1.0  0.60138  0.69903  0.56686  1.0000
  C   C824      1.0  0.60536  0.99153  0.50271  1.0000
  H   H1445     1.0  0.56115  0.66808  0.83108  1.0000
  C   C825      1.0  0.49624  0.94755  0.77754  1.0000
  H   H1446     1.0  0.52983  0.72215  0.87525  1.0000
  H   H1447     1.0  0.66495  0.85352  0.84944  1.0000
  H   H1448     1.0  0.58630  0.79177  0.86853  1.0000
  H   H1449     1.0  0.57268  0.74483  0.84389  1.0000
  H   H1450     1.0  0.60937  0.75054  0.84477  1.0000
  H   H1451     1.0  0.54021  0.76042  0.88267  1.0000
  H   H1452     1.0  0.51079  0.95714  0.75589  1.0000
  H   H1453     1.0  0.63036  0.80016  0.83885  1.0000
  C   C826      1.0  0.52877  0.76198  0.67337  1.0000
  H   H1454     1.0  0.51940  0.81311  0.74477  1.0000
  H   H1455     1.0  0.67185  0.77428  0.94173  1.0000
  H   H1456     1.0  0.51674  0.79525  0.68848  1.0000
  C   C827      1.0  0.64191  0.89602  0.51219  1.0000
  H   H1457     1.0  0.53608  0.93601  0.91984  1.0000
  H   H1458     1.0  0.54853  0.69954  0.54902  1.0000
  C   C828      1.0  0.63012  0.77551  0.93948  1.0000
  C   C829      1.0  0.57649  0.70714  0.86198  1.0000
  C   C830      1.0  0.62828  0.84237  0.59967  1.0000
  C   C831      1.0  0.51105  0.72945  0.91826  1.0000
  H   H1459     1.0  0.64157  0.74596  0.96600  1.0000
  H   H1460     1.0  0.65976  0.92827  0.56796  1.0000
  H   H1461     1.0  0.58131  0.91789  0.55955  1.0000
  H   H1462     1.0  0.50234  0.93790  0.85992  1.0000
  H   H1463     1.0  0.64890  0.85967  0.55366  1.0000
  H   H1464     1.0  0.80474  0.71880  0.88391  1.0000
  H   H1465     1.0  0.59801  0.91098  0.50555  1.0000
  N   N46       1.0  0.62217  0.89747  0.53852  1.0000
  C   C832      1.0  0.60752  0.73188  0.49323  1.0000
  C   C833      1.0  0.54597  0.69215  0.52352  1.0000
  C   C834      1.0  0.65943  0.98209  0.56262  1.0000
  C   C835      1.0  0.57122  0.89531  0.54840  1.0000
  C   C836      1.0  0.51441  0.92958  0.90803  1.0000
  C   C837      1.0  0.61350  0.87139  0.56132  1.0000
  C   C838      1.0  0.56754  0.79336  0.50728  1.0000
  C   C839      1.0  0.53689  0.73964  0.89416  1.0000
  C   C840      1.0  0.50349  0.95954  0.94846  1.0000
  H   H1466     1.0  0.54994  0.69430  0.81771  1.0000
  H   H1467     1.0  0.64369  0.71111  0.49829  1.0000
  H   H1468     1.0  0.56113  0.72328  0.92240  1.0000
  H   H1469     1.0  0.53069  0.86650  0.52105  1.0000
  H   H1470     1.0  0.64683  0.83855  0.60712  1.0000
  H   H1471     1.0  0.85105  0.70623  0.91801  1.0000
  H   H1472     1.0  0.65172  0.80554  0.87515  1.0000
  H   H1473     1.0  0.66750  0.96048  0.52293  1.0000
  H   H1474     1.0  0.54997  0.93612  0.85420  1.0000
  H   H1475     1.0  0.56205  0.67071  0.49111  1.0000
  H   H1476     1.0  0.64180  0.79960  0.93288  1.0000
  H   H1477     1.0  0.66552  0.90638  0.52069  1.0000
  H   H1478     1.0  0.64823  0.85069  0.88859  1.0000
  H   H1479     1.0  0.59691  0.84995  0.54952  1.0000
  H   H1480     1.0  0.59743  0.74484  0.50345  1.0000
  C   C841      1.0  0.59352  0.89377  0.52423  1.0000
  H   H1481     1.0  0.50116  0.83012  0.79002  1.0000
  Fe  Fe96      1.0  0.57541  0.67459  0.63397  1.0000
  C   C842      1.0  0.60890  0.71790  0.54936  1.0000
  C   C843      1.0  0.65252  0.76958  0.95755  1.0000
  H   H1482     1.0  0.81486  0.69531  0.93301  1.0000
  H   H1483     1.0  0.82267  0.74642  0.93577  1.0000
  H   H1484     1.0  0.52724  0.89144  0.54902  1.0000
  H   H1485     1.0  0.62538  0.92531  0.57928  1.0000
  H   H1486     1.0  0.65617  0.72915  0.55392  1.0000
  C   C844      1.0  0.52070  0.94974  0.87775  1.0000
  H   H1487     1.0  0.55015  0.80132  0.64214  1.0000
  C   C845      1.0  0.55012  0.95700  0.86119  1.0000
  H   H1488     1.0  0.56936  0.97028  0.87755  1.0000
  H   H1489     1.0  0.67804  0.98402  0.57789  1.0000
  H   H1490     1.0  0.84304  0.73247  0.87136  1.0000
  S   S190      1.0  0.58588  0.81430  0.96831  1.0000
  H   H1491     1.0  0.50644  0.70832  0.93039  1.0000
  H   H1492     1.0  0.54883  0.71084  0.50779  1.0000
  H   H1493     1.0  0.53578  0.74717  0.68544  1.0000
  C   C846      1.0  0.64676  0.75254  0.59080  1.0000
  N   N47       1.0  0.60143  0.70600  0.51520  1.0000
  H   H1494     1.0  0.62992  0.95474  0.52524  1.0000
  H   H1495     1.0  0.50044  0.72350  0.72972  1.0000
  H   H1496     1.0  0.55616  0.69580  0.87734  1.0000
  H   H1497     1.0  0.86112  0.75973  0.92355  1.0000
  H   H1498     1.0  0.50653  0.90639  0.89916  1.0000
  C   C847      1.0  0.64853  0.95562  0.53937  1.0000
  C   C848      1.0  0.51652  0.77525  0.69908  1.0000
  H   H1499     1.0  0.59648  0.72955  0.55605  1.0000
  H   H1500     1.0  0.51647  0.74698  0.93686  1.0000
  C   C849      1.0  0.63943  0.86677  0.57369  1.0000
  H   H1501     1.0  0.55330  0.97046  0.83906  1.0000
  H   H1502     1.0  0.61175  0.77112  0.95649  1.0000
  C   C850      1.0  0.63879  0.92602  0.55780  1.0000
  H   H1503     1.0  0.63696  0.75982  0.89315  1.0000
  H   H1504     1.0  0.65781  0.88749  0.58441  1.0000
  C   C851      1.0  0.83804  0.75211  0.91472  1.0000
  H   H1505     1.0  0.60490  0.80257  0.90589  1.0000
  H   H1506     1.0  0.67091  0.76835  0.59524  1.0000
  C   C852      1.0  0.62130  0.69304  0.50664  1.0000
  H   H1507     1.0  0.62675  0.84543  0.85214  1.0000
  C   C853      1.0  0.82758  0.69858  0.91026  1.0000
  H   H1508     1.0  0.54751  0.90600  0.51174  1.0000
  C   C854      1.0  0.82756  0.72506  0.89237  1.0000
  H   H1509     1.0  0.85921  0.68702  0.86930  1.0000
  H   H1510     1.0  0.58153  0.87191  0.51125  1.0000
  H   H1511     1.0  0.60965  0.82097  0.59031  1.0000
  C   C855      1.0  0.54246  0.88946  0.53140  1.0000
  H   H1512     1.0  0.52382  0.78357  0.49136  1.0000
  H   H1513     1.0  0.60887  0.73185  0.91758  1.0000
  H   H1514     1.0  0.53409  0.78424  0.71811  1.0000
  H   H1515     1.0  0.60216  0.87361  0.58319  1.0000
  H   H1516     1.0  0.83412  0.66629  0.95951  1.0000
  H   H1517     1.0  0.56929  0.75987  0.93216  1.0000
  C   C856      1.0  0.55622  0.78658  0.65587  1.0000
  H   H1518     1.0  0.57428  0.80019  0.67340  1.0000
  H   H1519     1.0  0.76700  0.67292  0.92166  1.0000
  C   C857      1.0  0.64250  0.74026  0.55640  1.0000
  H   H1520     1.0  0.83299  0.69159  0.84535  1.0000
  H   H1521     1.0  0.62591  0.68335  0.52856  1.0000
  C   C858      1.0  0.64389  0.84143  0.86367  1.0000
  C   C859      1.0  0.83515  0.67585  0.86204  1.0000
  H   H1522     1.0  0.54721  0.96535  0.96536  1.0000
  S   S191      1.0  0.50673  0.68073  0.66381  1.0000
  H   H1523     1.0  0.58802  0.98705  0.52027  1.0000
  H   H1524     1.0  0.58822  0.70274  0.81222  1.0000
  H   H1525     1.0  0.78305  0.67344  0.86159  1.0000
  H   H1526     1.0  0.85053  0.67355  0.79742  1.0000
  H   H1527     1.0  0.50028  0.76020  0.76391  1.0000
  C   C860      1.0  0.56852  0.69227  0.82870  1.0000
  H   H1528     1.0  0.52177  0.97118  0.88408  1.0000
  C   C861      1.0  0.50911  0.90727  0.97797  1.0000
  H   H1529     1.0  0.51194  0.74852  0.65487  1.0000
  H   H1530     1.0  0.63193  0.74821  0.49199  1.0000
  C   C862      1.0  0.53785  0.97853  0.95448  1.0000
  H   H1531     1.0  0.87429  0.66580  0.82330  1.0000
  S   S192      1.0  0.61539  0.66933  0.61626  1.0000
  H   H1532     1.0  0.49759  0.97432  0.93438  1.0000
  H   H1533     1.0  0.66102  0.78442  0.97904  1.0000
  H   H1534     1.0  0.54996  0.98785  0.93137  1.0000
  C   C863      1.0  0.51373  0.66664  0.51946  1.0000
  N   N48       1.0  0.81554  0.66965  0.89160  1.0000
  H   H1535     1.0  0.49805  0.67444  0.52715  1.0000
  C   C864      1.0  0.49565  0.79854  0.75210  1.0000
  H   H1536     1.0  0.56521  0.66369  0.53225  1.0000
