data_image0
_chemical_formula_structural       FeSH2S2FeSH3SH8C6H3CHC3SCHNC2H6CHC2H10CH3SNC4FeC3HFeC2H9FeSCH3C2H4CHSHC2HCH2FeSH3SHC4H3CH5CNHCH2C3H2CHCH3SH2CH4C2HCSHSH3CH2CH8FeSHFeHSHSH8C3NH2C2HCH2CH2C3H2CH3SC2HCHC2H2CH7CH6C2FeH3C4H4C2SFeSH4CH2CHC6HCHSH2C2H3CH6CHNCHC2HCH5CH2CH6CFeSH2CHCHCH2SCH3FeCHCNHCSFeSHFeSHC8H10CH4CH2CH4FeC3H2CHCH2SCH2CH2NCHCH4CSHCH2CH2CHC3H7NHCH2C2H2FeHCH3S2C3HC3HC2H3CSFeSH7C4HCHCH2C2H2SH2CH8C2HCHC2HCHSCHNC2HCH2SH2FeH7C4H3S2FeC2SC2H2CHFeNHCHSCH3C2H5CH3CHC2H8SH2S2FeSFeSCSFeSHNC6H4CHC4H5C2H2CHSCH6C2NHFeHCH3CHSH2C2H5CH3CH3CSC2H4C2H3CH4FeHCHC2HC3HNHCHCHCH9SH2NHCHC3H2CHC2SH8CHC2H4SHCSFeSNC6H5FeSCHC3HCHCH7CH2C2H3CHCHCHCFeSHCSH5CH2CHCHC2H4CHSC2HFeHCH2CH3CH2CH2CH2SH3C2H4C6H4CFeH5CHCFeC2H2SHCHCFeSC2H4C3HCH2SCH6NCH2CH4SH3SHCH
_chemical_formula_sum              "Fe32 S64 H512 C288 N16"
_cell_length_a       25.5296
_cell_length_b       25.5732
_cell_length_c       40.2354
_cell_angle_alpha    89.9604
_cell_angle_beta     89.9997
_cell_angle_gamma    90.0309

_space_group_name_H-M_alt    "P 1"
_space_group_IT_number       1

loop_
  _space_group_symop_operation_xyz
  'x, y, z'

loop_
  _atom_site_type_symbol
  _atom_site_label
  _atom_site_symmetry_multiplicity
  _atom_site_fract_x
  _atom_site_fract_y
  _atom_site_fract_z
  _atom_site_occupancy
  Fe  Fe1       1.0  0.31496  0.09470  0.11856  1.0000
  S   S1        1.0  0.28688  0.17808  0.12800  1.0000
  H   H1        1.0  0.48016  0.06475  0.18051  1.0000
  H   H2        1.0  0.35327  0.02128  0.26670  1.0000
  S   S2        1.0  0.29480  0.05051  0.07188  1.0000
  S   S3        1.0  0.40095  0.07277  0.11654  1.0000
  Fe  Fe2       1.0  0.07389  0.31429  0.24403  1.0000
  S   S4        1.0  0.11859  0.23726  0.23916  1.0000
  H   H3        1.0  0.29612  0.14400  0.30736  1.0000
  H   H4        1.0  0.23933  0.21983  0.06372  1.0000
  H   H5        1.0  0.45243  0.16284  0.16484  1.0000
  S   S5        1.0  0.10667  0.39515  0.23867  1.0000
  H   H6        1.0  0.14968  0.33284  0.05086  1.0000
  H   H7        1.0  0.24861  0.02333  0.22864  1.0000
  H   H8        1.0  0.43796  0.22909  0.17800  1.0000
  H   H9        1.0  0.22248  0.11425  0.17281  1.0000
  H   H10       1.0  0.17595  0.21524  0.04435  1.0000
  H   H11       1.0  0.45881  0.17469  0.28065  1.0000
  H   H12       1.0  0.09097  0.43012  0.05688  1.0000
  H   H13       1.0  0.34701  0.20222  0.19201  1.0000
  C   C1        1.0  0.24162  0.19368  0.16002  1.0000
  C   C2        1.0  0.23144  0.24646  0.16726  1.0000
  C   C3        1.0  0.19396  0.26058  0.19142  1.0000
  C   C4        1.0  0.16669  0.22186  0.20886  1.0000
  C   C5        1.0  0.17837  0.16908  0.20253  1.0000
  C   C6        1.0  0.21527  0.15501  0.17807  1.0000
  H   H14       1.0  0.25281  0.27645  0.15406  1.0000
  H   H15       1.0  0.18633  0.30132  0.19673  1.0000
  H   H16       1.0  0.15781  0.13882  0.21609  1.0000
  C   C7        1.0  0.05657  0.26181  0.12221  1.0000
  H   H17       1.0  0.21351  0.29987  0.09307  1.0000
  C   C8        1.0  0.27915  0.16021  0.28422  1.0000
  C   C9        1.0  0.14244  0.38697  0.10674  1.0000
  C   C10       1.0  0.45486  0.13807  0.32820  1.0000
  S   S6        1.0  0.09437  0.46917  0.32279  1.0000
  C   C11       1.0  0.20539  0.24291  0.05455  1.0000
  H   H18       1.0  0.21934  0.26930  0.03447  1.0000
  N   N1        1.0  0.10825  0.34048  0.09755  1.0000
  C   C12       1.0  0.17664  0.38254  0.13850  1.0000
  C   C13       1.0  0.21075  0.43110  0.14320  1.0000
  H   H19       1.0  0.11825  0.42245  0.11093  1.0000
  H   H20       1.0  0.29645  0.05726  0.27923  1.0000
  H   H21       1.0  0.36847  0.10042  0.29956  1.0000
  H   H22       1.0  0.16871  0.39795  0.08577  1.0000
  H   H23       1.0  0.36103  0.13651  0.17870  1.0000
  H   H24       1.0  0.47122  0.10414  0.03125  1.0000
  C   C14       1.0  0.09420  0.30873  0.12796  1.0000
  H   H25       1.0  0.25247  0.13106  0.27274  1.0000
  C   C15       1.0  0.24552  0.20728  0.29387  1.0000
  C   C16       1.0  0.18207  0.27439  0.08324  1.0000
  H   H26       1.0  0.03572  0.38329  0.10266  1.0000
  H   H27       1.0  0.21331  0.19453  0.31058  1.0000
  H   H28       1.0  0.10647  0.28093  0.05910  1.0000
  H   H29       1.0  0.09777  0.20376  0.15198  1.0000
  H   H30       1.0  0.22765  0.22538  0.27146  1.0000
  H   H31       1.0  0.15150  0.37912  0.16094  1.0000
  H   H32       1.0  0.20272  0.34822  0.13737  1.0000
  H   H33       1.0  0.23794  0.43606  0.12188  1.0000
  H   H34       1.0  0.18583  0.46653  0.14566  1.0000
  H   H35       1.0  0.23428  0.42689  0.16627  1.0000
  C   C17       1.0  0.31846  0.04298  0.25741  1.0000
  H   H36       1.0  0.17027  0.24586  0.10264  1.0000
  H   H37       1.0  0.40423  0.20102  0.14293  1.0000
  H   H38       1.0  0.19935  0.07008  0.02575  1.0000
  S   S7        1.0  0.03159  0.33337  0.29193  1.0000
  N   N2        1.0  0.36211  0.13511  0.25030  1.0000
  C   C18       1.0  0.39377  0.11783  0.28011  1.0000
  C   C19       1.0  0.33644  0.08814  0.23409  1.0000
  C   C20       1.0  0.39981  0.15932  0.22575  1.0000
  C   C21       1.0  0.32193  0.17613  0.25900  1.0000
  Fe  Fe3       1.0  0.37844  0.02245  0.07269  1.0000
  C   C22       1.0  0.42747  0.16030  0.29746  1.0000
  C   C23       1.0  0.37780  0.17175  0.19068  1.0000
  C   C24       1.0  0.13493  0.30761  0.07138  1.0000
  H   H39       1.0  0.36407  0.06914  0.21636  1.0000
  Fe  Fe4       1.0  0.05835  0.41617  0.28359  1.0000
  C   C25       1.0  0.17131  0.03769  0.02105  1.0000
  C   C26       1.0  0.42096  0.19245  0.16784  1.0000
  H   H40       1.0  0.12983  0.29336  0.14024  1.0000
  H   H41       1.0  0.40299  0.19378  0.30553  1.0000
  H   H42       1.0  0.30233  0.10077  0.21875  1.0000
  H   H43       1.0  0.03149  0.32877  0.07540  1.0000
  H   H44       1.0  0.43422  0.13341  0.22236  1.0000
  H   H45       1.0  0.41548  0.19698  0.23540  1.0000
  H   H46       1.0  0.34137  0.21234  0.26807  1.0000
  H   H47       1.0  0.30013  0.18839  0.23635  1.0000
  H   H48       1.0  0.06622  0.23985  0.09933  1.0000
  Fe  Fe5       1.0  0.03396  0.41321  0.20918  1.0000
  S   S8        1.0  0.29242  0.02896  0.15219  1.0000
  C   C27       1.0  0.48520  0.08565  0.00876  1.0000
  H   H49       1.0  0.26941  0.23710  0.30703  1.0000
  H   H50       1.0  0.42111  0.08594  0.27252  1.0000
  H   H51       1.0  0.48061  0.10479  0.32119  1.0000
  C   C28       1.0  0.49013  0.05042  0.20500  1.0000
  C   C29       1.0  0.06342  0.39737  0.05229  1.0000
  H   H52       1.0  0.07800  0.37470  0.03066  1.0000
  H   H53       1.0  0.07535  0.33438  0.14692  1.0000
  H   H54       1.0  0.14719  0.03203  0.04378  1.0000
  H   H55       1.0  0.02863  0.19201  0.14746  1.0000
  C   C30       1.0  0.05770  0.36129  0.08317  1.0000
  H   H56       1.0  0.05123  0.24264  0.17506  1.0000
  S   S9        1.0  0.05091  0.45395  0.16000  1.0000
  H   H57       1.0  0.07287  0.50806  0.09956  1.0000
  C   C31       1.0  0.05872  0.22285  0.15099  1.0000
  C   C32       1.0  0.29446  0.13520  0.49454  1.0000
  H   H58       1.0  0.44849  0.16014  0.57803  1.0000
  C   C33       1.0  0.39002  0.20789  0.55260  1.0000
  H   H59       1.0  0.22511  0.30450  0.53976  1.0000
  H   H60       1.0  0.46865  0.15135  0.43654  1.0000
  Fe  Fe6       1.0  0.30556  0.08714  0.62102  1.0000
  S   S10       1.0  0.27631  0.17109  0.62144  1.0000
  H   H61       1.0  0.43608  0.20809  0.41945  1.0000
  H   H62       1.0  0.25448  0.31624  0.49962  1.0000
  H   H63       1.0  0.41810  0.24168  0.47533  1.0000
  S   S11       1.0  0.39118  0.06466  0.62104  1.0000
  H   H64       1.0  0.33172  0.14747  0.55226  1.0000
  C   C34       1.0  0.04175  0.47964  0.47448  1.0000
  C   C35       1.0  0.05424  0.50402  0.35091  1.0000
  C   C36       1.0  0.45900  0.19313  0.44090  1.0000
  C   C37       1.0  0.37946  0.16374  0.47365  1.0000
  H   H65       1.0  0.29445  0.31647  0.53690  1.0000
  H   H66       1.0  0.45490  0.18871  0.49388  1.0000
  H   H67       1.0  0.47413  0.08053  0.54888  1.0000
  C   C38       1.0  0.36253  0.16141  0.53471  1.0000
  H   H68       1.0  0.08784  0.06187  0.56806  1.0000
  H   H69       1.0  0.27459  0.22193  0.54577  1.0000
  H   H70       1.0  0.02560  0.46747  0.45001  1.0000
  H   H71       1.0  0.27299  0.14645  0.47147  1.0000
  H   H72       1.0  0.36075  0.23746  0.56047  1.0000
  C   C39       1.0  0.26003  0.04216  0.48917  1.0000
  N   N3        1.0  0.33944  0.17254  0.50078  1.0000
  H   H73       1.0  0.30558  0.23540  0.47187  1.0000
  C   C40       1.0  0.31776  0.22727  0.49798  1.0000
  H   H74       1.0  0.39073  0.12835  0.53317  1.0000
  H   H75       1.0  0.43835  0.22404  0.59571  1.0000
  C   C41       1.0  0.26055  0.29773  0.52432  1.0000
  C   C42       1.0  0.26975  0.23899  0.52057  1.0000
  C   C43       1.0  0.20987  0.24200  0.65119  1.0000
  H   H76       1.0  0.38995  0.17404  0.60201  1.0000
  H   H77       1.0  0.08211  0.02406  0.49469  1.0000
  C   C44       1.0  0.45705  0.02745  0.50894  1.0000
  H   H78       1.0  0.26541  0.13749  0.51516  1.0000
  C   C45       1.0  0.41850  0.19013  0.58394  1.0000
  H   H79       1.0  0.11303  0.50462  0.44961  1.0000
  H   H80       1.0  0.36007  0.16649  0.44886  1.0000
  H   H81       1.0  0.21904  0.26722  0.63039  1.0000
  S   S12       1.0  0.04839  0.45621  0.64815  1.0000
  H   H82       1.0  0.49636  0.21533  0.44240  1.0000
  H   H83       1.0  0.14055  0.06453  0.53788  1.0000
  C   C46       1.0  0.23251  0.19197  0.65302  1.0000
  H   H84       1.0  0.14979  0.03113  0.57685  1.0000
  H   H85       1.0  0.34816  0.25702  0.50334  1.0000
  H   H86       1.0  0.23380  0.22177  0.50946  1.0000
  H   H87       1.0  0.06079  0.44537  0.48612  1.0000
  C   C47       1.0  0.12095  0.03985  0.55690  1.0000
  C   C48       1.0  0.42821  0.19975  0.47325  1.0000
  H   H88       1.0  0.41883  0.22789  0.53657  1.0000
  C   C49       1.0  0.48310  0.06965  0.52356  1.0000
  S   S13       1.0  0.28586  0.03717  0.57695  1.0000
  H   H89       1.0  0.39610  0.12359  0.47534  1.0000
  S   S14       1.0  0.28170  0.02600  0.65770  1.0000
  H   H90       1.0  0.07285  0.04733  0.65980  1.0000
  H   H91       1.0  0.23466  0.04786  0.51127  1.0000
  H   H92       1.0  0.44432  0.15676  0.65654  1.0000
  C   C50       1.0  0.30897  0.07657  0.49113  1.0000
  H   H93       1.0  0.37970  0.18055  0.66659  1.0000
  H   H94       1.0  0.42574  0.12456  0.34683  1.0000
  C   C51       1.0  0.50883  0.04009  0.45840  1.0000
  H   H95       1.0  0.06585  0.51166  0.58783  1.0000
  H   H96       1.0  0.03463  0.03566  0.44884  1.0000
  H   H97       1.0  0.02973  0.02421  0.52334  1.0000
  H   H98       1.0  0.33267  0.06391  0.51267  1.0000
  H   H99       1.0  0.51802  0.02893  0.43315  1.0000
  H   H100      1.0  0.33164  0.06923  0.46806  1.0000
  H   H101      1.0  0.23725  0.05133  0.46638  1.0000
  H   H102      1.0  0.47971  0.16873  0.33977  1.0000
  Fe  Fe7       1.0  0.07469  0.32358  0.73544  1.0000
  S   S15       1.0  0.12210  0.24827  0.73603  1.0000
  H   H103      1.0  0.31298  0.27830  0.81218  1.0000
  Fe  Fe8       1.0  0.04878  0.42490  0.77380  1.0000
  H   H104      1.0  0.05549  0.14928  0.69802  1.0000
  S   S16       1.0  0.10306  0.40629  0.73120  1.0000
  H   H105      1.0  0.03438  0.34074  0.89796  1.0000
  S   S17       1.0  0.07982  0.47176  0.81773  1.0000
  H   H106      1.0  0.02107  0.22601  0.77752  1.0000
  H   H107      1.0  0.35166  0.07969  0.78916  1.0000
  H   H108      1.0  0.40558  0.10829  0.70379  1.0000
  H   H109      1.0  0.12389  0.09034  0.67487  1.0000
  H   H110      1.0  0.41825  0.22162  0.82155  1.0000
  H   H111      1.0  0.46597  0.17474  0.78349  1.0000
  H   H112      1.0  0.15830  0.29837  0.67454  1.0000
  H   H113      1.0  0.43198  0.06993  0.81529  1.0000
  C   C52       1.0  0.36031  0.09743  0.76449  1.0000
  C   C53       1.0  0.16385  0.22771  0.70341  1.0000
  C   C54       1.0  0.18648  0.17773  0.70523  1.0000
  N   N4        1.0  0.38836  0.14889  0.76891  1.0000
  H   H114      1.0  0.07469  0.15577  0.75527  1.0000
  H   H115      1.0  0.17777  0.15268  0.72619  1.0000
  C   C55       1.0  0.44351  0.11169  0.81760  1.0000
  C   C56       1.0  0.09861  0.05641  0.68129  1.0000
  H   H116      1.0  0.23723  0.12135  0.68182  1.0000
  C   C57       1.0  0.03010  0.11635  0.70671  1.0000
  H   H117      1.0  0.41602  0.21441  0.73973  1.0000
  H   H118      1.0  0.36794  0.29974  0.83675  1.0000
  C   C58       1.0  0.17540  0.25974  0.67617  1.0000
  H   H119      1.0  0.12435  0.02213  0.68589  1.0000
  H   H120      1.0  0.39845  0.25768  0.78528  1.0000
  C   C59       1.0  0.30795  0.09978  0.74492  1.0000
  C   C60       1.0  0.42295  0.14737  0.70828  1.0000
  C   C61       1.0  0.44219  0.13823  0.78285  1.0000
  H   H121      1.0  0.04812  0.22190  0.83592  1.0000
  H   H122      1.0  0.04296  0.10736  0.77913  1.0000
  C   C62       1.0  0.46608  0.03645  0.99969  1.0000
  H   H123      1.0  0.34183  0.15984  0.81365  1.0000
  H   H124      1.0  0.35487  0.18951  0.72657  1.0000
  H   H125      1.0  0.46489  0.14244  0.71478  1.0000
  S   S18       1.0  0.02654  0.34062  0.78107  1.0000
  C   C63       1.0  0.38429  0.23229  0.80573  1.0000
  C   C64       1.0  0.03324  0.35381  0.87165  1.0000
  H   H126      1.0  0.32032  0.19674  0.77926  1.0000
  C   C65       1.0  0.35642  0.18280  0.79202  1.0000
  H   H127      1.0  0.31551  0.10818  0.71828  1.0000
  C   C66       1.0  0.49328  0.03385  0.70340  1.0000
  C   C67       1.0  0.34703  0.26479  0.82711  1.0000
  H   H128      1.0  0.46436  0.11158  0.76615  1.0000
  H   H129      1.0  0.33276  0.24154  0.84862  1.0000
  C   C68       1.0  0.39394  0.17736  0.73623  1.0000
  H   H130      1.0  0.41662  0.13063  0.83550  1.0000
  H   H131      1.0  0.38599  0.06837  0.75197  1.0000
  H   H132      1.0  0.09374  0.07444  0.73316  1.0000
  H   H133      1.0  0.24194  0.05030  0.73205  1.0000
  H   H134      1.0  0.28156  0.13048  0.75474  1.0000
  H   H135      1.0  0.32832  0.03477  0.95484  1.0000
  H   H136      1.0  0.51076  0.15466  0.83713  1.0000
  C   C69       1.0  0.22035  0.15986  0.68011  1.0000
  H   H137      1.0  0.26804  0.03855  0.77301  1.0000
  H   H138      1.0  0.03184  0.31907  0.85515  1.0000
  H   H139      1.0  0.40136  0.03571  0.91558  1.0000
  H   H140      1.0  0.06983  0.37580  0.86623  1.0000
  H   H141      1.0  0.48308  0.04399  0.67811  1.0000
  H   H142      1.0  0.49878  0.09259  0.85692  1.0000
  C   C70       1.0  0.06601  0.06807  0.71232  1.0000
  C   C71       1.0  0.05961  0.18994  0.81872  1.0000
  Fe  Fe9       1.0  0.03236  0.41931  0.69866  1.0000
  H   H143      1.0  0.04225  0.03277  0.71785  1.0000
  H   H144      1.0  0.14496  0.04854  0.00020  1.0000
  H   H145      1.0  0.09964  0.19840  0.80925  1.0000
  C   C72       1.0  0.27855  0.04781  0.74689  1.0000
  C   C73       1.0  0.49842  0.11358  0.83273  1.0000
  C   C74       1.0  0.03554  0.14390  0.76483  1.0000
  C   C75       1.0  0.04241  0.51346  0.84366  1.0000
  H   H146      1.0  0.05991  0.15255  0.83278  1.0000
  H   H147      1.0  0.26815  0.02230  0.99151  1.0000
  H   H148      1.0  0.34047  0.02774  0.89345  1.0000
  H   H149      1.0  0.43729  0.21752  0.67863  1.0000
  C   C76       1.0  0.42079  0.17761  0.67557  1.0000
  C   C77       1.0  0.22370  0.81743  0.15689  1.0000
  S   S19       1.0  0.35973  0.95154  0.10404  1.0000
  Fe  Fe10      1.0  0.27767  0.98256  0.10564  1.0000
  S   S20       1.0  0.19982  0.93914  0.10170  1.0000
  H   H150      1.0  0.18755  0.59988  0.05334  1.0000
  H   H151      1.0  0.10632  0.57004  0.26788  1.0000
  H   H152      1.0  0.17850  0.64245  0.10860  1.0000
  H   H153      1.0  0.27486  0.91304  0.01901  1.0000
  C   C78       1.0  0.15014  0.61887  0.06053  1.0000
  H   H154      1.0  0.06535  0.63127  0.20828  1.0000
  H   H155      1.0  0.39828  0.88958  0.01759  1.0000
  C   C79       1.0  0.08776  0.60710  0.19037  1.0000
  H   H156      1.0  0.10199  0.90293  0.07604  1.0000
  C   C80       1.0  0.18477  0.88678  0.07455  1.0000
  C   C81       1.0  0.22334  0.85325  0.06212  1.0000
  C   C82       1.0  0.20930  0.81087  0.04154  1.0000
  C   C83       1.0  0.15652  0.80139  0.03352  1.0000
  C   C84       1.0  0.11809  0.83515  0.04584  1.0000
  C   C85       1.0  0.13214  0.87734  0.06641  1.0000
  H   H157      1.0  0.26381  0.85936  0.06902  1.0000
  C   C86       1.0  0.08870  0.63345  0.15630  1.0000
  H   H158      1.0  0.07744  0.82881  0.03961  1.0000
  S   S21       1.0  0.41642  0.97252  0.19441  1.0000
  H   H159      1.0  0.34770  0.85395  0.03944  1.0000
  H   H160      1.0  0.25097  0.78553  0.16404  1.0000
  C   C87       1.0  0.28363  0.00369  0.23928  1.0000
  C   C88       1.0  0.20044  0.98700  0.01319  1.0000
  H   H161      1.0  0.11014  0.60708  0.13915  1.0000
  H   H162      1.0  0.46025  0.95265  0.25892  1.0000
  H   H163      1.0  0.12822  0.60121  0.19983  1.0000
  C   C89       1.0  0.47906  0.98737  0.24920  1.0000
  H   H164      1.0  0.14174  0.83124  0.14981  1.0000
  H   H165      1.0  0.17056  0.95621  0.00901  1.0000
  H   H166      1.0  0.22604  0.84880  0.17592  1.0000
  H   H167      1.0  0.18998  0.68867  0.07569  1.0000
  H   H168      1.0  0.22326  0.97638  0.03558  1.0000
  H   H169      1.0  0.06654  0.78588  0.10775  1.0000
  C   C90       1.0  0.06600  0.75842  0.12936  1.0000
  H   H170      1.0  0.09279  0.59860  0.30777  1.0000
  N   N5        1.0  0.11278  0.72237  0.12763  1.0000
  C   C91       1.0  0.11015  0.69166  0.09562  1.0000
  H   H171      1.0  0.08682  0.63781  0.27051  1.0000
  C   C92       1.0  0.16127  0.75635  0.12626  1.0000
  C   C93       1.0  0.11596  0.68780  0.15812  1.0000
  H   H172      1.0  0.04788  0.63603  0.14730  1.0000
  C   C94       1.0  0.16072  0.66120  0.08644  1.0000
  H   H173      1.0  0.23637  0.83419  0.13274  1.0000
  H   H174      1.0  0.06769  0.78330  0.15197  1.0000
  H   H175      1.0  0.15704  0.78004  0.17914  1.0000
  H   H176      1.0  0.06854  0.56825  0.18852  1.0000
  H   H177      1.0  0.23929  0.78473  0.03235  1.0000
  C   C95       1.0  0.16751  0.79701  0.15465  1.0000
  H   H178      1.0  0.10153  0.71832  0.07440  1.0000
  H   H179      1.0  0.07687  0.66378  0.09561  1.0000
  C   C96       1.0  0.08083  0.59826  0.28124  1.0000
  H   H180      1.0  0.12353  0.58854  0.07075  1.0000
  H   H181      1.0  0.16252  0.77841  0.10247  1.0000
  H   H182      1.0  0.19723  0.73175  0.12642  1.0000
  H   H183      1.0  0.15756  0.67937  0.16464  1.0000
  H   H184      1.0  0.10001  0.70888  0.18012  1.0000
  H   H185      1.0  0.13232  0.63623  0.03790  1.0000
  C   C97       1.0  0.36792  0.85872  0.01519  1.0000
  Fe  Fe11      1.0  0.37655  0.00396  0.14781  1.0000
  S   S22       1.0  0.42035  0.00158  0.02432  1.0000
  H   H186      1.0  0.38772  0.82136  0.00895  1.0000
  H   H187      1.0  0.51020  0.95383  0.09068  1.0000
  C   C98       1.0  0.02365  0.58141  0.27785  1.0000
  H   H188      1.0  0.27028  0.97309  0.25694  1.0000
  C   C99       1.0  0.51685  0.01362  0.26857  1.0000
  H   H189      1.0  0.30593  0.98416  0.21913  1.0000
  C   C100      1.0  0.46523  0.00587  0.21745  1.0000
  H   H190      1.0  0.51655  0.01585  0.06994  1.0000
  H   H191      1.0  0.02645  0.57786  0.06843  1.0000
  S   S23       1.0  0.13983  0.74608  0.00926  1.0000
  C   C101      1.0  0.03683  0.52396  0.10935  1.0000
  H   H192      1.0  0.10437  0.95148  0.46199  1.0000
  H   H193      1.0  0.15249  0.55422  0.66892  1.0000
  H   H194      1.0  0.18355  0.58469  0.53271  1.0000
  Fe  Fe12      1.0  0.36931  0.00920  0.57977  1.0000
  C   C102      1.0  0.03755  0.71956  0.62073  1.0000
  H   H195      1.0  0.17685  0.60310  0.59266  1.0000
  C   C103      1.0  0.07596  0.54475  0.36989  1.0000
  N   N6        1.0  0.13831  0.69928  0.62128  1.0000
  H   H196      1.0  0.06763  0.55681  0.45812  1.0000
  C   C104      1.0  0.16924  0.63548  0.57495  1.0000
  S   S24       1.0  0.35001  0.94211  0.61425  1.0000
  Fe  Fe13      1.0  0.26810  0.97388  0.61361  1.0000
  S   S25       1.0  0.19126  0.92911  0.61194  1.0000
  H   H197      1.0  0.50535  0.92994  0.56202  1.0000
  Fe  Fe14      1.0  0.04968  0.73265  0.49565  1.0000
  S   S26       1.0  0.13369  0.76033  0.50176  1.0000
  H   H198      1.0  0.06129  0.60678  0.40526  1.0000
  C   C105      1.0  0.08264  0.92367  0.47821  1.0000
  C   C106      1.0  0.18751  0.73155  0.61649  1.0000
  C   C107      1.0  0.17621  0.88395  0.58017  1.0000
  C   C108      1.0  0.21181  0.87114  0.55502  1.0000
  C   C109      1.0  0.19835  0.83342  0.53091  1.0000
  C   C110      1.0  0.14921  0.80863  0.53167  1.0000
  C   C111      1.0  0.11380  0.82187  0.55674  1.0000
  C   C112      1.0  0.12710  0.85949  0.58072  1.0000
  H   H199      1.0  0.24991  0.88971  0.55441  1.0000
  H   H200      1.0  0.22623  0.82325  0.51172  1.0000
  H   H201      1.0  0.07638  0.80260  0.55809  1.0000
  H   H202      1.0  0.09936  0.86931  0.60006  1.0000
  H   H203      1.0  0.08989  0.64961  0.58984  1.0000
  H   H204      1.0  0.18523  0.75419  0.59283  1.0000
  H   H205      1.0  0.22234  0.70571  0.61394  1.0000
  H   H206      1.0  0.26136  0.82766  0.65739  1.0000
  H   H207      1.0  0.09948  0.77443  0.61879  1.0000
  H   H208      1.0  0.11897  0.70306  0.56909  1.0000
  C   C113      1.0  0.06609  0.87548  0.45730  1.0000
  H   H209      1.0  0.14505  0.64171  0.52310  1.0000
  H   H210      1.0  0.04715  0.89588  0.53669  1.0000
  H   H211      1.0  0.11235  0.90869  0.49607  1.0000
  H   H212      1.0  0.05423  0.84301  0.47400  1.0000
  C   C114      1.0  0.11164  0.85596  0.43601  1.0000
  H   H213      1.0  0.11600  0.58741  0.54551  1.0000
  H   H214      1.0  0.14623  0.84695  0.45177  1.0000
  C   C115      1.0  0.10161  0.98868  0.54158  1.0000
  H   H215      1.0  0.03299  0.88415  0.44037  1.0000
  H   H216      1.0  0.04004  0.97539  0.42593  1.0000
  H   H217      1.0  0.44975  0.98052  0.46471  1.0000
  H   H218      1.0  0.20633  0.65675  0.57008  1.0000
  Fe  Fe15      1.0  0.36576  0.99991  0.65542  1.0000
  C   C116      1.0  0.25395  0.79738  0.63816  1.0000
  C   C117      1.0  0.12647  0.67284  0.58854  1.0000
  C   C118      1.0  0.15219  0.61090  0.54207  1.0000
  H   H219      1.0  0.09465  0.74348  0.65804  1.0000
  H   H220      1.0  0.09989  0.81959  0.42290  1.0000
  C   C119      1.0  0.09403  0.73573  0.63079  1.0000
  H   H221      1.0  0.12268  0.88578  0.41719  1.0000
  C   C120      1.0  0.04438  0.57482  0.39129  1.0000
  H   H222      1.0  0.03315  0.72131  0.59328  1.0000
  H   H223      1.0  0.08401  0.96525  0.56191  1.0000
  S   S27       1.0  0.40969  0.99024  0.53067  1.0000
  C   C121      1.0  0.20082  0.77151  0.64441  1.0000
  H   H224      1.0  0.08869  0.60231  0.63458  1.0000
  H   H225      1.0  0.20260  0.75258  0.66914  1.0000
  C   C122      1.0  0.06158  0.99911  0.51322  1.0000
  H   H226      1.0  0.13654  0.96760  0.53217  1.0000
  H   H227      1.0  0.28593  0.76801  0.63929  1.0000
  N   N7        1.0  0.03909  0.95131  0.49647  1.0000
  C   C123      1.0  0.14883  0.66022  0.64864  1.0000
  H   H228      1.0  0.02765  0.67943  0.62874  1.0000
  C   C124      1.0  0.10386  0.62188  0.65704  1.0000
  H   H229      1.0  0.25464  0.81681  0.61347  1.0000
  H   H230      1.0  0.27192  0.00037  0.48829  1.0000
  H   H231      1.0  0.18466  0.63708  0.64310  1.0000
  H   H232      1.0  0.07153  0.64310  0.66958  1.0000
  C   C125      1.0  0.46988  0.01303  0.47625  1.0000
  S   S28       1.0  0.02516  0.64855  0.50199  1.0000
  H   H233      1.0  0.11725  0.55363  0.36758  1.0000
  C   C126      1.0  0.03220  0.52926  0.59974  1.0000
  H   H234      1.0  0.17125  0.80328  0.64548  1.0000
  H   H235      1.0  0.10595  0.52908  0.49145  1.0000
  C   C127      1.0  0.08465  0.52011  0.46808  1.0000
  H   H236      1.0  0.02121  0.58709  0.56137  1.0000
  H   H237      1.0  0.31004  0.92421  0.92667  1.0000
  C   C128      1.0  0.22918  0.86719  0.93270  1.0000
  H   H238      1.0  0.13813  0.59620  0.70410  1.0000
  C   C129      1.0  0.32886  0.87281  0.98782  1.0000
  C   C130      1.0  0.47436  0.98817  0.75463  1.0000
  C   C131      1.0  0.21948  0.90625  0.96160  1.0000
  H   H239      1.0  0.26723  0.84684  0.93499  1.0000
  H   H240      1.0  0.14695  0.84369  0.92932  1.0000
  H   H241      1.0  0.37015  0.97878  0.96062  1.0000
  H   H242      1.0  0.47023  0.97486  0.96319  1.0000
  H   H243      1.0  0.19252  0.79986  0.90938  1.0000
  H   H244      1.0  0.35133  0.87743  0.96444  1.0000
  H   H245      1.0  0.22876  0.88843  0.90858  1.0000
  N   N8        1.0  0.26296  0.94459  0.96986  1.0000
  H   H246      1.0  0.44921  0.96270  0.76900  1.0000
  C   C132      1.0  0.18634  0.82549  0.93130  1.0000
  H   H247      1.0  0.18774  0.80075  0.95395  1.0000
  H   H248      1.0  0.18305  0.92746  0.95433  1.0000
  C   C133      1.0  0.46042  0.00113  0.72182  1.0000
  C   C134      1.0  0.29347  0.95922  0.93900  1.0000
  H   H249      1.0  0.21555  0.01390  0.96284  1.0000
  H   H250      1.0  0.38357  0.97226  0.89985  1.0000
  Fe  Fe16      1.0  0.05411  0.72427  0.00172  1.0000
  H   H251      1.0  0.20849  0.88319  0.98410  1.0000
  C   C135      1.0  0.23788  0.99399  0.98303  1.0000
  H   H252      1.0  0.05527  0.58259  0.91614  1.0000
  H   H253      1.0  0.10588  0.52476  0.87824  1.0000
  H   H254      1.0  0.30138  0.83938  0.98544  1.0000
  S   S29       1.0  0.40086  0.97688  0.70536  1.0000
  S   S30       1.0  0.02543  0.64044  0.00228  1.0000
  C   C136      1.0  0.03697  0.56690  0.89403  1.0000
  C   C137      1.0  0.29804  0.92293  0.99665  1.0000
  C   C138      1.0  0.06555  0.53415  0.87251  1.0000
  H   H255      1.0  0.26661  0.97714  0.92036  1.0000
  C   C139      1.0  0.48464  0.01301  0.97036  1.0000
  C   C140      1.0  0.34058  0.99684  0.94407  1.0000
  C   C141      1.0  0.52068  0.00789  0.76899  1.0000
  H   H256      1.0  0.08846  0.55352  0.68751  1.0000
  C   C142      1.0  0.36795  0.00872  0.91111  1.0000
  C   C143      1.0  0.12215  0.57903  0.68087  1.0000
  H   H257      1.0  0.30291  0.01564  0.73668  1.0000
  H   H258      1.0  0.32584  0.95327  0.00552  1.0000
  H   H259      1.0  0.15788  0.68064  0.67230  1.0000
  C   C144      1.0  0.54109  0.05871  0.25630  1.0000
  S   S31       1.0  0.98808  0.43991  0.25363  1.0000
  Fe  Fe17      1.0  0.96390  0.35527  0.25916  1.0000
  S   S32       1.0  0.87848  0.33759  0.27101  1.0000
  H   H260      1.0  0.63404  0.06427  0.19137  1.0000
  H   H261      1.0  0.54615  0.11174  0.21475  1.0000
  H   H262      1.0  0.70563  0.23457  0.22764  1.0000
  H   H263      1.0  0.71968  0.10420  0.17571  1.0000
  H   H264      1.0  0.89243  0.25149  0.18880  1.0000
  H   H265      1.0  0.93639  0.25045  0.30065  1.0000
  H   H266      1.0  0.57849  0.02117  0.01870  1.0000
  C   C145      1.0  0.80804  0.28286  0.30920  1.0000
  C   C146      1.0  0.86026  0.28634  0.29839  1.0000
  C   C147      1.0  0.84665  0.07533  0.28710  1.0000
  C   C148      1.0  0.01645  0.50452  0.13938  1.0000
  H   H267      1.0  0.78050  0.31283  0.30189  1.0000
  C   C149      1.0  0.52762  0.07687  0.22443  1.0000
  H   H268      1.0  0.75380  0.13164  0.28748  1.0000
  C   C150      1.0  0.82787  0.21432  0.21462  1.0000
  H   H269      1.0  0.82450  0.06944  0.31055  1.0000
  H   H270      1.0  0.83553  0.24048  0.16321  1.0000
  C   C151      1.0  0.89600  0.24817  0.30865  1.0000
  C   C152      1.0  0.77930  0.14029  0.26580  1.0000
  H   H271      1.0  0.64543  0.18542  0.26612  1.0000
  H   H272      1.0  0.75085  0.23839  0.33731  1.0000
  S   S33       1.0  0.58687  0.09506  0.27998  1.0000
  H   H273      1.0  0.79962  0.14022  0.19699  1.0000
  H   H274      1.0  0.87795  0.18634  0.17443  1.0000
  C   C153      1.0  0.67156  0.04451  0.19754  1.0000
  H   H275      1.0  0.90722  0.17709  0.33673  1.0000
  H   H276      1.0  0.83349  0.09198  0.23582  1.0000
  H   H277      1.0  0.66981  0.14767  0.21770  1.0000
  H   H278      1.0  0.80752  0.16977  0.27517  1.0000
  H   H279      1.0  0.85492  0.19878  0.23381  1.0000
  H   H280      1.0  0.81340  0.25309  0.22288  1.0000
  H   H281      1.0  0.62668  0.25642  0.30487  1.0000
  H   H282      1.0  0.68924  0.28616  0.29667  1.0000
  C   C154      1.0  0.80947  0.08907  0.25864  1.0000
  C   C155      1.0  0.67908  0.20800  0.27579  1.0000
  H   H283      1.0  0.64063  0.28190  0.26402  1.0000
  C   C156      1.0  0.71600  0.08444  0.20023  1.0000
  H   H284      1.0  0.65855  0.08223  0.01958  1.0000
  C   C157      1.0  0.78187  0.17577  0.20793  1.0000
  C   C158      1.0  0.65780  0.26154  0.28584  1.0000
  H   H285      1.0  0.75287  0.23947  0.25985  1.0000
  C   C159      1.0  0.86025  0.22352  0.18321  1.0000
  H   H286      1.0  0.69361  0.18847  0.29855  1.0000
  S   S34       1.0  0.00372  0.33055  0.21174  1.0000
  C   C160      1.0  0.70408  0.12553  0.22757  1.0000
  H   H287      1.0  0.75731  0.19279  0.18772  1.0000
  N   N9        1.0  0.74769  0.16260  0.23745  1.0000
  C   C161      1.0  0.72288  0.21307  0.24913  1.0000
  C   C162      1.0  0.69078  0.05747  0.00971  1.0000
  H   H288      1.0  0.86657  0.47299  0.25150  1.0000
  C   C163      1.0  0.84765  0.48433  0.27530  1.0000
  H   H289      1.0  0.68924  0.10443  0.24994  1.0000
  H   H290      1.0  0.75273  0.06283  0.20490  1.0000
  S   S35       1.0  0.70886  0.04324  0.32940  1.0000
  H   H291      1.0  0.86441  0.46018  0.29569  1.0000
  H   H292      1.0  0.80517  0.47547  0.27343  1.0000
  Fe  Fe18      1.0  0.62619  0.07403  0.32922  1.0000
  H   H293      1.0  0.87604  0.10685  0.29079  1.0000
  H   H294      1.0  0.95389  0.51097  0.17496  1.0000
  H   H295      1.0  0.71356  0.04208  0.03106  1.0000
  H   H296      1.0  0.99467  0.44510  0.06326  1.0000
  H   H297      1.0  0.86773  0.03850  0.28128  1.0000
  H   H298      1.0  0.78138  0.05615  0.25630  1.0000
  H   H299      1.0  0.98207  0.39001  0.03619  1.0000
  C   C164      1.0  0.79111  0.24070  0.32912  1.0000
  C   C165      1.0  0.87931  0.20652  0.32902  1.0000
  C   C166      1.0  0.01067  0.42118  0.04257  1.0000
  C   C167      1.0  0.82662  0.20198  0.33882  1.0000
  H   H300      1.0  0.01575  0.44701  0.02059  1.0000
  H   H301      1.0  0.01561  0.27618  0.12017  1.0000
  H   H302      1.0  0.66674  0.02298  0.22137  1.0000
  S   S36       1.0  0.70782  0.06038  0.41023  1.0000
  S   S37       1.0  0.64568  0.14271  0.36235  1.0000
  Fe  Fe19      1.0  0.72666  0.10868  0.36497  1.0000
  C   C168      1.0  0.00088  0.49285  0.35398  1.0000
  C   C169      1.0  0.91461  0.49340  0.52825  1.0000
  S   S38       1.0  0.58401  0.11748  0.45149  1.0000
  C   C170      1.0  0.89495  0.42271  0.42497  1.0000
  C   C171      1.0  0.52204  0.09677  0.50570  1.0000
  H   H303      1.0  0.87225  0.44372  0.40556  1.0000
  H   H304      1.0  0.00875  0.45309  0.55189  1.0000
  C   C172      1.0  0.99751  0.50299  0.49637  1.0000
  H   H305      1.0  0.93202  0.40860  0.41358  1.0000
  Fe  Fe20      1.0  0.62496  0.08850  0.40466  1.0000
  N   N10       1.0  0.95744  0.46477  0.50961  1.0000
  H   H306      1.0  0.87146  0.38866  0.43350  1.0000
  C   C173      1.0  0.98288  0.35972  0.57915  1.0000
  H   H307      1.0  0.92167  0.41500  0.57058  1.0000
  S   S39       1.0  0.80722  0.14737  0.36305  1.0000
  C   C174      1.0  0.94993  0.39256  0.55524  1.0000
  H   H308      1.0  0.01365  0.40349  0.52119  1.0000
  H   H309      1.0  0.96617  0.40588  0.47144  1.0000
  H   H310      1.0  0.93025  0.49241  0.44392  1.0000
  C   C175      1.0  0.93498  0.43094  0.48242  1.0000
  C   C176      1.0  0.01479  0.50973  0.63044  1.0000
  H   H311      1.0  0.90574  0.40313  0.49274  1.0000
  H   H312      1.0  0.95691  0.33415  0.59422  1.0000
  H   H313      1.0  0.87903  0.46830  0.53013  1.0000
  H   H314      1.0  0.64920  0.02427  0.52930  1.0000
  H   H315      1.0  0.72697  0.07978  0.52159  1.0000
  C   C177      1.0  0.90656  0.45976  0.45386  1.0000
  H   H316      1.0  0.86843  0.47507  0.46284  1.0000
  H   H317      1.0  0.68561  0.08134  0.48539  1.0000
  H   H318      1.0  0.92768  0.36513  0.53926  1.0000
  C   C178      1.0  0.71181  0.05612  0.50055  1.0000
  H   H319      1.0  0.54233  0.12918  0.51724  1.0000
  C   C179      1.0  0.98526  0.42936  0.53409  1.0000
  C   C180      1.0  0.53541  0.08182  0.47316  1.0000
  H   H320      1.0  0.00508  0.38536  0.59642  1.0000
  H   H321      1.0  0.92818  0.51371  0.37772  1.0000
  H   H322      1.0  0.92704  0.50117  0.55439  1.0000
  H   H323      1.0  0.01084  0.33465  0.56527  1.0000
  H   H324      1.0  0.97983  0.03632  0.39819  1.0000
  H   H325      1.0  0.93941  0.04014  0.43480  1.0000
  H   H326      1.0  0.98384  0.46138  0.33961  1.0000
  H   H327      1.0  0.74553  0.04332  0.48510  1.0000
  S   S40       1.0  0.59984  0.02234  0.37145  1.0000
  H   H328      1.0  0.95824  0.51861  0.66968  1.0000
  H   H329      1.0  0.87226  0.22239  0.67003  1.0000
  S   S41       1.0  0.72090  0.05658  0.90316  1.0000
  S   S42       1.0  0.66031  0.13072  0.84923  1.0000
  Fe  Fe21      1.0  0.74175  0.09947  0.85597  1.0000
  S   S43       1.0  0.81891  0.14475  0.85485  1.0000
  Fe  Fe22      1.0  0.63783  0.08196  0.89376  1.0000
  S   S44       1.0  0.59147  0.11878  0.93623  1.0000
  C   C181      1.0  0.78398  0.28581  0.89954  1.0000
  S   S45       1.0  0.97990  0.44379  0.74101  1.0000
  Fe  Fe23      1.0  0.96117  0.35757  0.74576  1.0000
  S   S46       1.0  0.87833  0.32713  0.75352  1.0000
  H   H330      1.0  0.85701  0.50055  0.79215  1.0000
  N   N11       1.0  0.99801  0.13373  0.73631  1.0000
  C   C182      1.0  0.83454  0.19458  0.82588  1.0000
  C   C183      1.0  0.79799  0.21353  0.80296  1.0000
  C   C184      1.0  0.81194  0.25408  0.78089  1.0000
  C   C185      1.0  0.86268  0.27542  0.78114  1.0000
  C   C186      1.0  0.89932  0.25607  0.80380  1.0000
  C   C187      1.0  0.88511  0.21633  0.82632  1.0000
  H   H331      1.0  0.75884  0.19727  0.80243  1.0000
  H   H332      1.0  0.78324  0.26883  0.76345  1.0000
  H   H333      1.0  0.93840  0.27218  0.80424  1.0000
  H   H334      1.0  0.91345  0.20214  0.84416  1.0000
  C   C188      1.0  0.53946  0.05373  0.71779  1.0000
  H   H335      1.0  0.83043  0.49144  0.87286  1.0000
  C   C189      1.0  0.93386  0.35907  0.87121  1.0000
  C   C190      1.0  0.83396  0.31880  0.89992  1.0000
  C   C191      1.0  0.96994  0.18334  0.72627  1.0000
  C   C192      1.0  0.83241  0.50010  0.92553  1.0000
  H   H336      1.0  0.93428  0.32452  0.85439  1.0000
  H   H337      1.0  0.93593  0.34329  0.89694  1.0000
  H   H338      1.0  0.86730  0.29115  0.90208  1.0000
  H   H339      1.0  0.83277  0.34404  0.92230  1.0000
  H   H340      1.0  0.93513  0.11086  0.79577  1.0000
  C   C193      1.0  0.88622  0.41523  0.83218  1.0000
  C   C194      1.0  0.88151  0.43076  0.89328  1.0000
  H   H341      1.0  0.70376  0.11150  0.96869  1.0000
  H   H342      1.0  0.91448  0.45892  0.89071  1.0000
  C   C195      1.0  0.91726  0.10391  0.77109  1.0000
  H   H343      1.0  0.88723  0.41237  0.91809  1.0000
  S   S47       1.0  0.00743  0.33486  0.70045  1.0000
  C   C196      1.0  0.54209  0.08695  0.95967  1.0000
  H   H344      1.0  0.86869  0.22627  0.71459  1.0000
  H   H345      1.0  0.86781  0.44378  0.76614  1.0000
  H   H346      1.0  0.97272  0.51143  0.81379  1.0000
  H   H347      1.0  0.74870  0.31121  0.89897  1.0000
  H   H348      1.0  0.91832  0.26261  0.69226  1.0000
  H   H349      1.0  0.78224  0.26108  0.92222  1.0000
  C   C197      1.0  0.83870  0.35195  0.86778  1.0000
  C   C198      1.0  0.84084  0.46212  0.78437  1.0000
  N   N12       1.0  0.88397  0.38996  0.86621  1.0000
  H   H350      1.0  0.80066  0.37209  0.86437  1.0000
  Fe  Fe24      1.0  0.64517  0.05746  0.81953  1.0000
  H   H351      1.0  0.89395  0.13856  0.76368  1.0000
  C   C199      1.0  0.96019  0.09043  0.74520  1.0000
  H   H352      1.0  0.80412  0.44481  0.83094  1.0000
  H   H353      1.0  0.84129  0.32399  0.84660  1.0000
  H   H354      1.0  0.90820  0.38989  0.81442  1.0000
  C   C200      1.0  0.83328  0.42635  0.81443  1.0000
  H   H355      1.0  0.78341  0.25955  0.87754  1.0000
  S   S48       1.0  0.72857  0.02902  0.82369  1.0000
  H   H356      1.0  0.84894  0.06932  0.79441  1.0000
  H   H357      1.0  0.94669  0.19955  0.74715  1.0000
  C   C201      1.0  0.55336  0.04096  0.75062  1.0000
  C   C202      1.0  0.98600  0.38925  0.86559  1.0000
  H   H358      1.0  0.98138  0.18082  0.80050  1.0000
  H   H359      1.0  0.98981  0.42288  0.88278  1.0000
  H   H360      1.0  0.90864  0.45241  0.83344  1.0000
  H   H361      1.0  0.56458  0.07925  0.70341  1.0000
  H   H362      1.0  0.81608  0.38904  0.80534  1.0000
  C   C203      1.0  0.83175  0.46505  0.89474  1.0000
  H   H363      1.0  0.83402  0.47622  0.94858  1.0000
  H   H364      1.0  0.89911  0.02278  0.78370  1.0000
  H   H365      1.0  0.94052  0.07505  0.72255  1.0000
  C   C204      1.0  0.93281  0.17865  0.69578  1.0000
  H   H366      1.0  0.79560  0.44113  0.89585  1.0000
  H   H367      1.0  0.52729  0.09460  0.81606  1.0000
  H   H368      1.0  0.80259  0.46864  0.77190  1.0000
  C   C205      1.0  0.52230  0.03816  0.95037  1.0000
  S   S49       1.0  0.61100  0.06866  0.76763  1.0000
  C   C206      1.0  0.72635  0.09305  0.98919  1.0000
  C   C207      1.0  0.87860  0.05873  0.77532  1.0000
  H   H369      1.0  0.98171  0.05619  0.75541  1.0000
  H   H370      1.0  0.98877  0.40418  0.83978  1.0000
  H   H371      1.0  0.85772  0.05080  0.75163  1.0000
  H   H372      1.0  0.99915  0.21448  0.72036  1.0000
  C   C208      1.0  0.02064  0.18729  0.78996  1.0000
  C   C209      1.0  0.52304  0.11076  0.98878  1.0000
  H   H373      1.0  0.75968  0.07059  0.97864  1.0000
  H   H374      1.0  0.90789  0.14328  0.69715  1.0000
  H   H375      1.0  0.00433  0.10618  0.68538  1.0000
  C   C210      1.0  0.89595  0.22545  0.69309  1.0000
  H   H376      1.0  0.63839  0.03019  0.97135  1.0000
  H   H377      1.0  0.53801  0.14865  0.99607  1.0000
  H   H378      1.0  0.74229  0.12462  0.00520  1.0000
  H   H379      1.0  0.95616  0.17706  0.67250  1.0000
  Fe  Fe25      1.0  0.96075  0.67155  0.03464  1.0000
  H   H380      1.0  0.01397  0.58006  0.25114  1.0000
  C   C211      1.0  0.91464  0.55561  0.28599  1.0000
  H   H381      1.0  0.68809  0.95355  0.05274  1.0000
  C   C212      1.0  0.73789  0.93080  0.01247  1.0000
  C   C213      1.0  0.96410  0.58461  0.10401  1.0000
  H   H382      1.0  0.92983  0.59529  0.22211  1.0000
  C   C214      1.0  0.98673  0.61760  0.29820  1.0000
  C   C215      1.0  0.90011  0.62900  0.32369  1.0000
  C   C216      1.0  0.94389  0.56553  0.13421  1.0000
  H   H383      1.0  0.68052  0.01580  0.17765  1.0000
  N   N13       1.0  0.92837  0.61217  0.29237  1.0000
  H   H384      1.0  0.77177  0.90066  0.05854  1.0000
  C   C217      1.0  0.56718  0.95415  0.05056  1.0000
  H   H385      1.0  0.90947  0.71202  0.20880  1.0000
  C   C218      1.0  0.96998  0.52568  0.15191  1.0000
  H   H386      1.0  0.93406  0.54081  0.26327  1.0000
  C   C219      1.0  0.85561  0.54261  0.28224  1.0000
  H   H387      1.0  0.92913  0.75222  0.12940  1.0000
  H   H388      1.0  0.83804  0.56461  0.26126  1.0000
  H   H389      1.0  0.83383  0.55183  0.30536  1.0000
  H   H390      1.0  0.91959  0.68873  0.27007  1.0000
  H   H391      1.0  0.97554  0.64834  0.22932  1.0000
  H   H392      1.0  0.58936  0.92059  0.06092  1.0000
  H   H393      1.0  0.86678  0.64638  0.26237  1.0000
  H   H394      1.0  0.90754  0.58123  0.14373  1.0000
  H   H395      1.0  0.99918  0.65894  0.29441  1.0000
  S   S50       1.0  0.93018  0.63465  0.08250  1.0000
  H   H396      1.0  0.81085  0.88997  0.02200  1.0000
  H   H397      1.0  0.93008  0.53091  0.30658  1.0000
  N   N14       1.0  0.64273  0.96838  0.00798  1.0000
  H   H398      1.0  0.86434  0.65864  0.20102  1.0000
  C   C220      1.0  0.90633  0.66967  0.20298  1.0000
  H   H399      1.0  0.99633  0.60819  0.32458  1.0000
  C   C221      1.0  0.77015  0.89058  0.03171  1.0000
  C   C222      1.0  0.68209  0.93655  0.02753  1.0000
  C   C223      1.0  0.93367  0.63681  0.22959  1.0000
  H   H400      1.0  0.53667  0.93908  0.03333  1.0000
  H   H401      1.0  0.75321  0.85084  0.02867  1.0000
  C   C224      1.0  0.01156  0.73200  0.13056  1.0000
  H   H402      1.0  0.66648  0.89652  0.03220  1.0000
  C   C225      1.0  0.96762  0.77254  0.12926  1.0000
  C   C226      1.0  0.91022  0.64728  0.26444  1.0000
  S   S51       1.0  0.99257  0.75342  0.03662  1.0000
  H   H403      1.0  0.92310  0.71290  0.32142  1.0000
  H   H404      1.0  0.92506  0.66268  0.17845  1.0000
  H   H405      1.0  0.85736  0.63316  0.31887  1.0000
  H   H406      1.0  0.56682  0.99413  0.09854  1.0000
  H   H407      1.0  0.52692  0.99920  0.29304  1.0000
  H   H408      1.0  0.97023  0.79618  0.10615  1.0000
  H   H409      1.0  0.96960  0.79897  0.15111  1.0000
  H   H410      1.0  0.75923  0.96857  0.01373  1.0000
  C   C227      1.0  0.01077  0.56370  0.09170  1.0000
  H   H411      1.0  0.00677  0.71016  0.15417  1.0000
  C   C228      1.0  0.53862  0.98132  0.07916  1.0000
  C   C229      1.0  0.60401  0.99260  0.03194  1.0000
  H   H412      1.0  0.00590  0.70524  0.10931  1.0000
  H   H413      1.0  0.02057  0.54079  0.28731  1.0000
  H   H414      1.0  0.62490  0.01554  0.05135  1.0000
  H   H415      1.0  0.89639  0.73504  0.37907  1.0000
  S   S52       1.0  0.70791  0.91268  0.38342  1.0000
  H   H416      1.0  0.55486  0.90322  0.51024  1.0000
  C   C230      1.0  0.00704  0.57197  0.58467  1.0000
  S   S53       1.0  0.90438  0.69102  0.48829  1.0000
  Fe  Fe26      1.0  0.93890  0.77107  0.48159  1.0000
  S   S54       1.0  0.90169  0.85124  0.47517  1.0000
  N   N15       1.0  0.63398  0.92437  0.49509  1.0000
  C   C231      1.0  0.76361  0.89619  0.40755  1.0000
  C   C232      1.0  0.77772  0.84334  0.41125  1.0000
  C   C233      1.0  0.82071  0.82882  0.43123  1.0000
  C   C234      1.0  0.84966  0.86716  0.44789  1.0000
  C   C235      1.0  0.83579  0.91997  0.44401  1.0000
  C   C236      1.0  0.79316  0.93446  0.42383  1.0000
  H   H417      1.0  0.75505  0.81348  0.39877  1.0000
  H   H418      1.0  0.83088  0.78802  0.43416  1.0000
  H   H419      1.0  0.85789  0.94988  0.45682  1.0000
  H   H420      1.0  0.78305  0.97524  0.42107  1.0000
  H   H421      1.0  0.73679  0.80495  0.52671  1.0000
  Fe  Fe27      1.0  0.95876  0.68142  0.53182  1.0000
  S   S55       1.0  0.93186  0.64934  0.58159  1.0000
  C   C237      1.0  0.96401  0.59541  0.60000  1.0000
  H   H422      1.0  0.95717  0.74484  0.62718  1.0000
  C   C238      1.0  0.94655  0.57601  0.63075  1.0000
  C   C239      1.0  0.88042  0.69979  0.36649  1.0000
  C   C240      1.0  0.96949  0.52248  0.37564  1.0000
  H   H423      1.0  0.54290  0.95049  0.59764  1.0000
  C   C241      1.0  0.84716  0.56618  0.53187  1.0000
  H   H424      1.0  0.91331  0.59407  0.64284  1.0000
  C   C242      1.0  0.01591  0.91395  0.52144  1.0000
  H   H425      1.0  0.59783  0.89512  0.56301  1.0000
  H   H426      1.0  0.62193  0.96104  0.56213  1.0000
  H   H427      1.0  0.59680  0.88223  0.39610  1.0000
  H   H428      1.0  0.53151  0.90868  0.39687  1.0000
  H   H429      1.0  0.65052  0.85193  0.52052  1.0000
  H   H430      1.0  0.53191  0.99550  0.56405  1.0000
  H   H431      1.0  0.93402  0.86354  0.55555  1.0000
  C   C243      1.0  0.99104  0.56353  0.39437  1.0000
  H   H432      1.0  0.58933  0.96044  0.43264  1.0000
  H   H433      1.0  0.92551  0.91309  0.58682  1.0000
  C   C244      1.0  0.58982  0.93524  0.55366  1.0000
  C   C245      1.0  0.89760  0.54789  0.51503  1.0000
  H   H434      1.0  0.97277  0.93431  0.46451  1.0000
  H   H435      1.0  0.94486  0.97919  0.41225  1.0000
  H   H436      1.0  0.83745  0.60638  0.52345  1.0000
  C   C246      1.0  0.65957  0.97531  0.48525  1.0000
  H   H437      1.0  0.93975  0.95162  0.53106  1.0000
  C   C247      1.0  0.56179  0.88852  0.41200  1.0000
  H   H438      1.0  0.63105  0.00102  0.47220  1.0000
  C   C248      1.0  0.68180  0.00887  0.51393  1.0000
  H   H439      1.0  0.96751  0.99373  0.48628  1.0000
  C   C249      1.0  0.58460  0.93425  0.51515  1.0000
  Fe  Fe28      1.0  0.68479  0.99746  0.37464  1.0000
  S   S56       1.0  0.94921  0.60010  0.42051  1.0000
  H   H440      1.0  0.53911  0.92821  0.45643  1.0000
  C   C250      1.0  0.72286  0.87446  0.49638  1.0000
  S   S57       1.0  0.98663  0.76429  0.52833  1.0000
  H   H441      1.0  0.92858  0.57707  0.52072  1.0000
  H   H442      1.0  0.87416  0.66903  0.38558  1.0000
  H   H443      1.0  0.76907  0.86368  0.54155  1.0000
  H   H444      1.0  0.95742  0.67540  0.35219  1.0000
  H   H445      1.0  0.74541  0.90994  0.48957  1.0000
  C   C251      1.0  0.75752  0.84123  0.51909  1.0000
  H   H446      1.0  0.68233  0.90665  0.53819  1.0000
  H   H447      1.0  0.79371  0.82977  0.50567  1.0000
  C   C252      1.0  0.67093  0.88915  0.51407  1.0000
  H   H448      1.0  0.65322  0.89146  0.44685  1.0000
  C   C253      1.0  0.97408  0.93704  0.54520  1.0000
  H   H449      1.0  0.84214  0.71019  0.35514  1.0000
  C   C254      1.0  0.57567  0.92215  0.44212  1.0000
  C   C255      1.0  0.61881  0.89591  0.46358  1.0000
  H   H450      1.0  0.71539  0.85111  0.47366  1.0000
  H   H451      1.0  0.85205  0.56692  0.55932  1.0000
  H   H452      1.0  0.60532  0.85549  0.46955  1.0000
  H   H453      1.0  0.99033  0.96959  0.56019  1.0000
  C   C256      1.0  0.01380  0.99926  0.44180  1.0000
  H   H454      1.0  0.69123  0.96843  0.46670  1.0000
  S   S58       1.0  0.00395  0.74375  0.44817  1.0000
  C   C257      1.0  0.53932  0.95389  0.57021  1.0000
  C   C258      1.0  0.95413  0.89539  0.56936  1.0000
  H   H455      1.0  0.99685  0.88061  0.50849  1.0000
  Fe  Fe29      1.0  0.97298  0.66259  0.45780  1.0000
  H   H456      1.0  0.54605  0.85004  0.42002  1.0000
  C   C259      1.0  0.91887  0.68106  0.33987  1.0000
  H   H457      1.0  0.56576  0.97151  0.50718  1.0000
  H   H458      1.0  0.70924  0.98639  0.52975  1.0000
  C   C260      1.0  0.99617  0.96843  0.47306  1.0000
  H   H459      1.0  0.01577  0.52455  0.51742  1.0000
  H   H460      1.0  0.89107  0.54847  0.48788  1.0000
  H   H461      1.0  0.97922  0.53369  0.48074  1.0000
  C   C261      1.0  0.97189  0.53331  0.64599  1.0000
  H   H462      1.0  0.98702  0.87862  0.58398  1.0000
  H   H463      1.0  0.90368  0.59835  0.34331  1.0000
  C   C262      1.0  0.99693  0.75669  0.63555  1.0000
  H   H464      1.0  0.81407  0.53994  0.52533  1.0000
  H   H465      1.0  0.00420  0.79742  0.62711  1.0000
  C   C263      1.0  0.96651  0.01459  0.42056  1.0000
  H   H466      1.0  0.99801  0.75506  0.66312  1.0000
  H   H467      1.0  0.91286  0.79315  0.91568  1.0000
  S   S59       1.0  0.72465  0.90486  0.88342  1.0000
  H   H468      1.0  0.57924  0.95668  0.97352  1.0000
  H   H469      1.0  0.92124  0.56763  0.85237  1.0000
  H   H470      1.0  0.58094  0.85109  0.94510  1.0000
  C   C264      1.0  0.80182  0.64710  0.90384  1.0000
  C   C265      1.0  0.96155  0.55829  0.85810  1.0000
  H   H471      1.0  0.86270  0.83998  0.87532  1.0000
  H   H472      1.0  0.74351  0.80609  0.78364  1.0000
  H   H473      1.0  0.93804  0.88594  0.90332  1.0000
  H   H474      1.0  0.66444  0.93756  0.94097  1.0000
  C   C266      1.0  0.77335  0.89127  0.91348  1.0000
  C   C267      1.0  0.77852  0.84003  0.92568  1.0000
  C   C268      1.0  0.81937  0.82686  0.94768  1.0000
  C   C269      1.0  0.85514  0.86500  0.95787  1.0000
  C   C270      1.0  0.84856  0.91672  0.94682  1.0000
  C   C271      1.0  0.80808  0.92979  0.92454  1.0000
  H   H475      1.0  0.75103  0.81030  0.91786  1.0000
  H   H476      1.0  0.82324  0.78726  0.95684  1.0000
  H   H477      1.0  0.99979  0.65793  0.81266  1.0000
  H   H478      1.0  0.80447  0.96943  0.91542  1.0000
  C   C272      1.0  0.89020  0.81086  0.86427  1.0000
  Fe  Fe30      1.0  0.94479  0.76947  0.99068  1.0000
  H   H479      1.0  0.75755  0.87522  0.78338  1.0000
  H   H480      1.0  0.82118  0.86577  0.82806  1.0000
  H   H481      1.0  0.84650  0.64883  0.85857  1.0000
  H   H482      1.0  0.78260  0.60971  0.89696  1.0000
  H   H483      1.0  0.77321  0.67143  0.91775  1.0000
  C   C273      1.0  0.96081  0.67412  0.80590  1.0000
  H   H484      1.0  0.87568  0.94663  0.95494  1.0000
  C   C274      1.0  0.64239  0.90830  0.95565  1.0000
  Fe  Fe31      1.0  0.97419  0.66445  0.95914  1.0000
  C   C275      1.0  0.96415  0.85263  0.89706  1.0000
  C   C276      1.0  0.80796  0.78206  0.83887  1.0000
  H   H485      1.0  0.86673  0.52690  0.92490  1.0000
  H   H486      1.0  0.96433  0.69488  0.78174  1.0000
  S   S60       1.0  0.90787  0.85009  0.98483  1.0000
  H   H487      1.0  0.62743  0.86064  0.91201  1.0000
  C   C277      1.0  0.61197  0.93394  0.98457  1.0000
  H   H488      1.0  0.83557  0.63831  0.92032  1.0000
  C   C278      1.0  0.81987  0.67544  0.87239  1.0000
  Fe  Fe32      1.0  0.70192  0.98855  0.87037  1.0000
  S   S61       1.0  0.90703  0.69031  0.99174  1.0000
  C   C279      1.0  0.99040  0.52611  0.83635  1.0000
  C   C280      1.0  0.84890  0.72696  0.88107  1.0000
  H   H489      1.0  0.90916  0.83092  0.84283  1.0000
  H   H490      1.0  0.83775  0.82325  0.79408  1.0000
  H   H491      1.0  0.78749  0.75010  0.82539  1.0000
  H   H492      1.0  0.97222  0.74284  0.83524  1.0000
  C   C281      1.0  0.60478  0.88079  0.93177  1.0000
  C   C282      1.0  0.98477  0.57897  0.88696  1.0000
  C   C283      1.0  0.80968  0.82956  0.81467  1.0000
  H   H493      1.0  0.78451  0.68236  0.85712  1.0000
  C   C284      1.0  0.88855  0.73580  0.82453  1.0000
  H   H494      1.0  0.82572  0.74793  0.90024  1.0000
  H   H495      1.0  0.88522  0.71485  0.89409  1.0000
  S   S62       1.0  0.94670  0.61920  0.91338  1.0000
  C   C285      1.0  0.75587  0.83969  0.79926  1.0000
  H   H496      1.0  0.78136  0.79353  0.85961  1.0000
  H   H497      1.0  0.89599  0.76302  0.80355  1.0000
  H   H498      1.0  0.73715  0.91867  0.98611  1.0000
  H   H499      1.0  0.94119  0.68894  0.85658  1.0000
  H   H500      1.0  0.99175  0.84700  0.91809  1.0000
  H   H501      1.0  0.86326  0.70453  0.81386  1.0000
  N   N16       1.0  0.86015  0.76338  0.85236  1.0000
  C   C286      1.0  0.94235  0.71147  0.83315  1.0000
  H   H502      1.0  0.57842  0.90970  0.91971  1.0000
  H   H503      1.0  0.72608  0.84636  0.81894  1.0000
  C   C287      1.0  0.93215  0.80276  0.89172  1.0000
  H   H504      1.0  0.69895  0.99783  0.97177  1.0000
  H   H505      1.0  0.93311  0.64086  0.80325  1.0000
  H   H506      1.0  0.95961  0.77068  0.88606  1.0000
  H   H507      1.0  0.66960  0.87814  0.96534  1.0000
  S   S63       1.0  0.00890  0.74527  0.95565  1.0000
  H   H508      1.0  0.98708  0.86227  0.87443  1.0000
  H   H509      1.0  0.79623  0.52413  0.92628  1.0000
  H   H510      1.0  0.53106  0.99761  0.79423  1.0000
  S   S64       1.0  0.61675  0.01085  0.86364  1.0000
  H   H511      1.0  0.59349  0.90091  0.99822  1.0000
  C   C288      1.0  0.66764  0.01235  0.98848  1.0000
  H   H512      1.0  0.53647  0.01956  0.92796  1.0000
