data_image0
_chemical_formula_structural       SH3FeSFeS2FeS2FeSFeCS2CSHFeHSFeSHCHS3FeSFeSHC2SHC6H4C6H4C6H4C6H4CH3CH3C2H3NC6HC4H13CH4CHCH7CH9C3H5C2H3NSC2H4FeCH2SHCH2CHNH6FeH5SHCNH8CHC3H4SCH2C2H2NC9HC2H20CHCH6SHSC2HCHC2H4CH2C2H2C2H2FeHCH8C2HSCHCHC3H4CH3C2H5CHC3H3CH2CHCH3CH2NH2CH2SCH2FeSFeS2FeS2FeSFeS3HSCFeHSFeSCH2SHSCHFeSH4FeC6H4C6H4C6H4C6H8C3HCH6CHCH3C2H2CH3CNC4HC4HC2H8C2HCH11CH4CSC2H3CHCHC3H3CH4SH3C2H6CSHCH3CH2C2HCHCH2C4H11NCHC3H3NH2CH3CHCH4CHCHSHCNH4SHCHN2H8C3HC2H5CHCHCHCHCH3CHFeHSH3C2H4CH4FeCH2CH2CHC2H4C2H5CSH2CHCHNH2C2HCH3FeS2FeS2FeSFeS3HSCFeCSH2FeS2C2HFeS2H2SCHSH5CHCHC9H3CH4C6H4CH4C6H4C6H5C2HC2H5CH3C3NHC2H2CH4C2H6SHCH9CN2C12H22CH6FeHCSH3CH4CH6CH3CH4CHCH3CFeCHC2H7C2HFeH2CHC2H2C2H4CHNCNCFeC5SH2SH4C2FeSH3CSCNH2CH3CH2CH3CH7CH2SH2CH3CFeS2FeS2FeSFeHS2HSHFeHSFeCFeS2HCSFeS2HFeSH2SC3H2CSHCH2C6H5CH3C6H6SH2C6H4C6H4CNCH5C4H9C2H2FeH6CHC4H2SNC8HC3H16CHCH9NC4HC6H14CH3SC3SH6CH3C2H5CNH2SHC2H3C2H2CH8FeH6CH7CNH5CH2CSHFeCH7CHCH3CHC2HCNC2NCH3CH2C2HCH4C2HC4H2CHSCHC2HC2H5FeH2CH4SCH4CH2FeSHS2CH2FeSHSCSFeSCSFeSC4HCH2C6H2CH2NCH2CSHC3H3FeCH3CH10C2FeH4CH4SHC2NH3C2HC2H3C2HCSC3SH2C3H2CHCH4CH5C2HC2HCH10FeCH4CH4CSC2HCH3NHCH2CH2CHCNH3CH2C2HCHCH6CH3CHSHCH4C2HFeH4CH7CHC2HCSH3CH3CH2C2H2CHCH4CHCFeSHS2HC2FeS3HSFeS3FeSFeSC3NHCH4CH2C2H3C7HSH2C4HC2HC5HCHCSH2CHCH3CH3C2H4CHCHC2H6C2HC2H4NC2HC2HC3H21NHCHSCH6SH2CHCH2CH3CH2SC3H2CHCH2CH4CH2CH5CH2CHCH6CHCH2C2H3CSHCFeH7CH2CFeCH2FeHCH6SCFeSCSH2FeS2HFeS2HSFe2CS2CSC4H2CHC2HC2H2CH2NH2C2H2CH3CHCHCHCHCHC4NH5C3H3C5HCHSC2SH4CH2CSCH2SH2CH2CH2CH2SCH3CH5NCHCH9CH2C2H4CH7CHCH5CH2C2H9CH7FeCH4CHCHCHNHC4H5FeH2FeCH3CH6C3HCHCH3CHSHFeSCSHSFeS2HFeSCHSHFeSHCHSH2CH3CH3CH2CHC2H3SH3C3H4C3HC2HCFeCHSH2CH2CH11C3HC2H2CH4CHNCHC4H3CHC2H2CH5C4H2C3H2C2HCHC4H2CH3C2FeH2CHFeH7SH6CH3CH2CSH7FeC2H3CH3CH4CH2C2H6NH2CHFeS2FeS2FeSFeS3HSHFeNSFeSHSHS2CHSHCFeSFeHCSH3CHCHFeHCHC6H4C6H4CHC7H4C6H5C2HNC7HC5H2NH10CH9CH3C2HSHC2H3SCH2C3FeH2C4H3SC2H2C2H7CHCH2CH5CSHCH2CH3SCH6CHCHFeH2C2HC3HSHCH5CH11NC4HC4HC2H8CH19C3H6CH4NH5CH4CH5CH3C2H2FeHCH3CHC2HFeS2FeS2FeSFeS3HSCFeCSFeSH3S2HFeSH2FeSCSHSCH4CH2C2HC6H4C6H4CH2C6H4C6H5CH4CFeH2NC9H18SCN2C7H2CH8SH3SH3C2H2CHFeHNH9CH3C2H4CHC2H2CH5SFeSCH2CH8C3H2C2H3CH5CHCHCH2CHCH2C4H2NCH3CH3CH4C4HCH3CH4CHCHFeH2CH4CH3CH2S2FeCSCHFeS2HFeS2FeS2FeSFeS3CHFeSCSHSFeSH4CH3SH2C6H4C6H4C6H4C6H5CH10SHCNH4CHCH3CH8S2H3CHC3H3CHC2H4NC12H28CHNHCHNC12H22NCH3C2H2CHCH3CHNH3C2HC3HCSH5NH3CH3CHCH3C2HCHCHSH2C2HCHSC2FeH3C2H5CNHFeHCSCH3C3H4CH4CHC3H5C5H2FeHSHFeHSHCFeS2HFeSCFeS2FeSFeS3HSFeS3HSFeSH3CHCHCH2FeC6H4C6H3C7H4C6H4C2HCH2CH2SHNC12H29NHCHCHCH2CHNCH7SH4SH5NC12H16SH2FeH13C2HCNHSHCH2C2H2NCH8CHC2HC3H3C4HFeCH4FeCHCH2SCH2CH3CHC2H2CH2CHCH6C2HFeH2CHCSHCHC4SHCH3CH5CH9CH2C2H3CHNC2H2C2HCSHCH2C2
_chemical_formula_sum              "S256 H2048 Fe128 C1152 N64"
_cell_length_a       53.767
_cell_length_b       53.9428
_cell_length_c       41.6163
_cell_angle_alpha    89.9392
_cell_angle_beta     90.2318
_cell_angle_gamma    89.8212

_space_group_name_H-M_alt    "P 1"
_space_group_IT_number       1

loop_
  _space_group_symop_operation_xyz
  'x, y, z'

loop_
  _atom_site_type_symbol
  _atom_site_label
  _atom_site_symmetry_multiplicity
  _atom_site_fract_x
  _atom_site_fract_y
  _atom_site_fract_z
  _atom_site_occupancy
  S   S1        1.0  0.06004  0.02191  0.35154  1.0000
  H   H1        1.0  0.16803  0.31087  0.02132  1.0000
  H   H2        1.0  0.16155  0.40825  0.47484  1.0000
  H   H3        1.0  0.03842  0.11571  0.19571  1.0000
  Fe  Fe1       1.0  0.10191  0.02064  0.35508  1.0000
  S   S2        1.0  0.12355  0.05725  0.35184  1.0000
  Fe  Fe2       1.0  0.24138  0.18320  0.21526  1.0000
  S   S3        1.0  0.27836  0.18936  0.23938  1.0000
  S   S4        1.0  0.22381  0.20591  0.17426  1.0000
  Fe  Fe3       1.0  0.22964  0.13740  0.25732  1.0000
  S   S5        1.0  0.26563  0.14142  0.28445  1.0000
  S   S6        1.0  0.20710  0.10124  0.25884  1.0000
  Fe  Fe4       1.0  0.25780  0.18255  0.28576  1.0000
  S   S7        1.0  0.27125  0.20378  0.33054  1.0000
  Fe  Fe5       1.0  0.28356  0.14779  0.23655  1.0000
  C   C1        1.0  0.09355  0.47807  0.47657  1.0000
  S   S8        1.0  0.22017  0.17820  0.26179  1.0000
  S   S9        1.0  0.24815  0.14219  0.20909  1.0000
  C   C2        1.0  0.28791  0.27992  0.32179  1.0000
  S   S10       1.0  0.26785  0.34024  0.02959  1.0000
  H   H4        1.0  0.21115  0.99668  0.00553  1.0000
  Fe  Fe6       1.0  0.24255  0.30868  0.46400  1.0000
  H   H5        1.0  0.01379  0.41212  0.06698  1.0000
  S   S11       1.0  0.22464  0.28580  0.42392  1.0000
  Fe  Fe7       1.0  0.26069  0.29936  0.02667  1.0000
  S   S12       1.0  0.27457  0.27701  0.07027  1.0000
  H   H6        1.0  0.23461  0.06807  0.15804  1.0000
  C   C3        1.0  0.12667  0.47263  0.22114  1.0000
  H   H7        1.0  0.29153  0.13959  0.14171  1.0000
  S   S13       1.0  0.25067  0.34926  0.45644  1.0000
  S   S14       1.0  0.09873  0.46488  0.14594  1.0000
  S   S15       1.0  0.04947  0.46054  0.10120  1.0000
  Fe  Fe8       1.0  0.05831  0.47535  0.15074  1.0000
  S   S16       1.0  0.09898  0.49146  0.07574  1.0000
  Fe  Fe9       1.0  0.09072  0.45349  0.09522  1.0000
  S   S17       1.0  0.10189  0.41671  0.07130  1.0000
  H   H8        1.0  0.23693  0.34956  0.38586  1.0000
  C   C4        1.0  0.25814  0.43613  0.46588  1.0000
  C   C5        1.0  0.31918  0.47165  0.47747  1.0000
  S   S18       1.0  0.02959  0.01102  0.43186  1.0000
  H   H9        1.0  0.28340  0.16888  0.43781  1.0000
  C   C6        1.0  0.17954  0.38938  0.03916  1.0000
  C   C7        1.0  0.15849  0.37447  0.03522  1.0000
  C   C8        1.0  0.13493  0.38307  0.04534  1.0000
  C   C9        1.0  0.13207  0.40669  0.05932  1.0000
  C   C10       1.0  0.15311  0.42156  0.06324  1.0000
  C   C11       1.0  0.17665  0.41292  0.05327  1.0000
  H   H10       1.0  0.16036  0.35639  0.02433  1.0000
  H   H11       1.0  0.11880  0.37136  0.04229  1.0000
  H   H12       1.0  0.15127  0.43973  0.07400  1.0000
  H   H13       1.0  0.09967  0.43206  0.44649  1.0000
  C   C12       1.0  0.23823  0.22582  0.14574  1.0000
  C   C13       1.0  0.26279  0.23387  0.14927  1.0000
  C   C14       1.0  0.27348  0.24954  0.12596  1.0000
  C   C15       1.0  0.25975  0.25762  0.09901  1.0000
  C   C16       1.0  0.23511  0.24974  0.09558  1.0000
  C   C17       1.0  0.22449  0.23386  0.11876  1.0000
  H   H14       1.0  0.27343  0.22823  0.17013  1.0000
  H   H15       1.0  0.29251  0.25562  0.12894  1.0000
  H   H16       1.0  0.22438  0.25559  0.07487  1.0000
  H   H17       1.0  0.20551  0.22767  0.11572  1.0000
  C   C18       1.0  0.23794  0.26302  0.39825  1.0000
  C   C19       1.0  0.22375  0.25369  0.37249  1.0000
  C   C20       1.0  0.23355  0.23562  0.35147  1.0000
  C   C21       1.0  0.25770  0.22656  0.35608  1.0000
  C   C22       1.0  0.27190  0.23594  0.38186  1.0000
  C   C23       1.0  0.26212  0.25404  0.40282  1.0000
  H   H18       1.0  0.20501  0.26048  0.36873  1.0000
  H   H19       1.0  0.22239  0.22864  0.33179  1.0000
  H   H20       1.0  0.29060  0.22905  0.38566  1.0000
  H   H21       1.0  0.27320  0.26093  0.42260  1.0000
  C   C24       1.0  0.14823  0.06807  0.32707  1.0000
  C   C25       1.0  0.15835  0.09165  0.33323  1.0000
  C   C26       1.0  0.17675  0.10189  0.31312  1.0000
  C   C27       1.0  0.18505  0.08878  0.28624  1.0000
  C   C28       1.0  0.17512  0.06508  0.28023  1.0000
  C   C29       1.0  0.15694  0.05470  0.30058  1.0000
  H   H22       1.0  0.15176  0.10219  0.35361  1.0000
  H   H23       1.0  0.18418  0.12011  0.31811  1.0000
  H   H24       1.0  0.18138  0.05476  0.25950  1.0000
  H   H25       1.0  0.14942  0.03653  0.29552  1.0000
  C   C30       1.0  0.27907  0.07567  0.30190  1.0000
  H   H26       1.0  0.17772  0.27732  0.19226  1.0000
  H   H27       1.0  0.27603  0.05682  0.17919  1.0000
  H   H28       1.0  0.03044  0.07615  0.35321  1.0000
  C   C31       1.0  0.01182  0.99772  0.46365  1.0000
  H   H29       1.0  0.26943  0.18400  0.40362  1.0000
  H   H30       1.0  0.24648  0.14922  0.09280  1.0000
  H   H31       1.0  0.27556  0.21360  0.44821  1.0000
  C   C32       1.0  0.32629  0.07669  0.15743  1.0000
  C   C33       1.0  0.31898  0.19082  0.10632  1.0000
  H   H32       1.0  0.01649  0.11461  0.22864  1.0000
  H   H33       1.0  0.05789  0.04083  0.24238  1.0000
  H   H34       1.0  0.00839  0.04084  0.32793  1.0000
  N   N1        1.0  0.07876  0.08255  0.27286  1.0000
  C   C34       1.0  0.09877  0.10153  0.27936  1.0000
  C   C35       1.0  0.06516  0.07720  0.30376  1.0000
  C   C36       1.0  0.09149  0.05876  0.26282  1.0000
  C   C37       1.0  0.06085  0.09040  0.24662  1.0000
  C   C38       1.0  0.05528  0.11856  0.24338  1.0000
  C   C39       1.0  0.11788  0.10539  0.25194  1.0000
  H   H35       1.0  0.25069  0.16449  0.42877  1.0000
  C   C40       1.0  0.05167  0.09921  0.32007  1.0000
  C   C41       1.0  0.04320  0.09225  0.35393  1.0000
  C   C42       1.0  0.03390  0.12330  0.21982  1.0000
  C   C43       1.0  0.13215  0.12966  0.25597  1.0000
  H   H36       1.0  0.27630  0.28558  0.27201  1.0000
  H   H37       1.0  0.10957  0.09627  0.30124  1.0000
  H   H38       1.0  0.09073  0.11986  0.28531  1.0000
  H   H39       1.0  0.05059  0.06290  0.29997  1.0000
  H   H40       1.0  0.07838  0.06917  0.32163  1.0000
  H   H41       1.0  0.10570  0.05322  0.28109  1.0000
  H   H42       1.0  0.10182  0.06154  0.24001  1.0000
  H   H43       1.0  0.06783  0.08445  0.22263  1.0000
  H   H44       1.0  0.04276  0.08063  0.24957  1.0000
  H   H45       1.0  0.07184  0.12845  0.23408  1.0000
  H   H46       1.0  0.05026  0.12712  0.26659  1.0000
  H   H47       1.0  0.13172  0.09006  0.25225  1.0000
  H   H48       1.0  0.10869  0.10554  0.22802  1.0000
  C   C44       1.0  0.30450  0.03892  0.22898  1.0000
  H   H49       1.0  0.31192  0.16420  0.18021  1.0000
  H   H50       1.0  0.06375  0.11566  0.32264  1.0000
  H   H51       1.0  0.03480  0.10426  0.30603  1.0000
  H   H52       1.0  0.09293  0.47980  0.24636  1.0000
  C   C45       1.0  0.01193  0.99911  0.09830  1.0000
  H   H53       1.0  0.03322  0.10813  0.36499  1.0000
  C   C46       1.0  0.29396  0.09129  0.32580  1.0000
  H   H54       1.0  0.02289  0.44810  0.26033  1.0000
  H   H55       1.0  0.22778  0.99712  0.27207  1.0000
  H   H56       1.0  0.14724  0.13068  0.23784  1.0000
  H   H57       1.0  0.11954  0.14580  0.25258  1.0000
  H   H58       1.0  0.14077  0.13069  0.28022  1.0000
  H   H59       1.0  0.00412  0.03899  0.37086  1.0000
  H   H60       1.0  0.32051  0.27170  0.43865  1.0000
  C   C47       1.0  0.22709  0.01443  0.28648  1.0000
  H   H61       1.0  0.15473  0.26840  0.16244  1.0000
  H   H62       1.0  0.30480  0.28084  0.38432  1.0000
  H   H63       1.0  0.30487  0.26793  0.27682  1.0000
  H   H64       1.0  0.27952  0.33148  0.39333  1.0000
  H   H65       1.0  0.28194  0.08481  0.22398  1.0000
  H   H66       1.0  0.30948  0.48972  0.48048  1.0000
  H   H67       1.0  0.30930  0.35239  0.33903  1.0000
  H   H68       1.0  0.31494  0.07002  0.13775  1.0000
  H   H69       1.0  0.32244  0.29923  0.31674  1.0000
  C   C48       1.0  0.30072  0.45215  0.46388  1.0000
  C   C49       1.0  0.27001  0.06846  0.22915  1.0000
  C   C50       1.0  0.23874  0.41273  0.41923  1.0000
  H   H70       1.0  0.31180  0.43634  0.45435  1.0000
  H   H71       1.0  0.07594  0.99888  0.23725  1.0000
  H   H72       1.0  0.23132  0.43014  0.40855  1.0000
  H   H73       1.0  0.05560  0.40365  0.43915  1.0000
  H   H74       1.0  0.25782  0.32526  0.32489  1.0000
  C   C51       1.0  0.01670  0.47533  0.22317  1.0000
  C   C52       1.0  0.99575  0.03431  0.34716  1.0000
  H   H75       1.0  0.19279  0.42459  0.05661  1.0000
  H   H76       1.0  0.32247  0.11644  0.10952  1.0000
  H   H77       1.0  0.04571  0.40739  0.07984  1.0000
  N   N2        1.0  0.30427  0.31537  0.35802  1.0000
  S   S19       1.0  0.04125  0.46347  0.19891  1.0000
  C   C53       1.0  0.25466  0.19276  0.48473  1.0000
  C   C54       1.0  0.99697  0.01235  0.12514  1.0000
  H   H78       1.0  0.31741  0.34926  0.37990  1.0000
  H   H79       1.0  0.32410  0.21494  0.21084  1.0000
  H   H80       1.0  0.26511  0.08791  0.29035  1.0000
  H   H81       1.0  0.02864  0.43971  0.02428  1.0000
  Fe  Fe10      1.0  0.05956  0.99803  0.39614  1.0000
  C   C55       1.0  0.32366  0.30733  0.41424  1.0000
  H   H82       1.0  0.28106  0.10031  0.34303  1.0000
  H   H83       1.0  0.30172  0.38154  0.41693  1.0000
  S   S20       1.0  0.32140  0.12886  0.22870  1.0000
  H   H84       1.0  0.05891  0.44821  0.44801  1.0000
  C   C56       1.0  0.04474  0.42782  0.01755  1.0000
  H   H85       1.0  0.08709  0.41667  0.99437  1.0000
  H   H86       1.0  0.00453  0.47442  0.04740  1.0000
  C   C57       1.0  0.08836  0.01511  0.24027  1.0000
  H   H87       1.0  0.22960  0.03884  0.24605  1.0000
  N   N3        1.0  0.31665  0.16906  0.12897  1.0000
  H   H88       1.0  0.22496  0.07842  0.19721  1.0000
  H   H89       1.0  0.30822  0.05057  0.29139  1.0000
  H   H90       1.0  0.22852  0.16629  0.12180  1.0000
  H   H91       1.0  0.27595  0.02088  0.28383  1.0000
  H   H92       1.0  0.29238  0.46129  0.44231  1.0000
  H   H93       1.0  0.27534  0.25387  0.28564  1.0000
  Fe  Fe11      1.0  0.23029  0.34581  0.00669  1.0000
  H   H94       1.0  0.24437  0.13832  0.13393  1.0000
  H   H95       1.0  0.29901  0.10368  0.17298  1.0000
  H   H96       1.0  0.30446  0.10604  0.31308  1.0000
  H   H97       1.0  0.30179  0.19345  0.16576  1.0000
  H   H98       1.0  0.14455  0.41967  0.44051  1.0000
  S   S21       1.0  0.10145  0.99928  0.40188  1.0000
  H   H99       1.0  0.06778  0.02850  0.28057  1.0000
  C   C58       1.0  0.32313  0.02119  0.24607  1.0000
  N   N4        1.0  0.28405  0.04987  0.24952  1.0000
  H   H100      1.0  0.30706  0.31505  0.42635  1.0000
  H   H101      1.0  0.23787  0.05251  0.28347  1.0000
  H   H102      1.0  0.30919  0.07790  0.26735  1.0000
  H   H103      1.0  0.27657  0.42510  0.42060  1.0000
  H   H104      1.0  0.31568  0.05397  0.21791  1.0000
  H   H105      1.0  0.09169  0.45942  0.00124  1.0000
  H   H106      1.0  0.26852  0.35389  0.34233  1.0000
  H   H107      1.0  0.26385  0.35231  0.13940  1.0000
  C   C59       1.0  0.00661  0.00966  0.25656  1.0000
  H   H108      1.0  0.27078  0.36343  0.09958  1.0000
  C   C60       1.0  0.23531  0.33909  0.36301  1.0000
  C   C61       1.0  0.26086  0.33530  0.34780  1.0000
  C   C62       1.0  0.31978  0.38972  0.42085  1.0000
  H   H109      1.0  0.22636  0.32092  0.36784  1.0000
  H   H110      1.0  0.22449  0.40454  0.43534  1.0000
  H   H111      1.0  0.26933  0.06122  0.31602  1.0000
  H   H112      1.0  0.29195  0.14615  0.10014  1.0000
  S   S22       1.0  0.21000  0.37944  0.02826  1.0000
  C   C63       1.0  0.29643  0.06339  0.27699  1.0000
  H   H113      1.0  0.13834  0.46984  0.24292  1.0000
  H   H114      1.0  0.25402  0.07646  0.24229  1.0000
  C   C64       1.0  0.26620  0.17804  0.42882  1.0000
  C   C65       1.0  0.03927  0.40102  0.02876  1.0000
  H   H115      1.0  0.05948  0.08754  0.36936  1.0000
  H   H116      1.0  0.02445  0.39225  0.01418  1.0000
  N   N5        1.0  0.19139  0.32741  0.11629  1.0000
  C   C66       1.0  0.17866  0.35237  0.11616  1.0000
  C   C67       1.0  0.18881  0.31629  0.08314  1.0000
  C   C68       1.0  0.17948  0.31126  0.14146  1.0000
  C   C69       1.0  0.21872  0.32971  0.12415  1.0000
  C   C70       1.0  0.23318  0.34962  0.10503  1.0000
  C   C71       1.0  0.18056  0.36756  0.14769  1.0000
  C   C72       1.0  0.18879  0.28399  0.14260  1.0000
  C   C73       1.0  0.16209  0.30849  0.07303  1.0000
  C   C74       1.0  0.16182  0.29711  0.03944  1.0000
  H   H117      1.0  0.20727  0.01934  0.29063  1.0000
  C   C75       1.0  0.17007  0.39370  0.14291  1.0000
  C   C76       1.0  0.17493  0.26907  0.16806  1.0000
  H   H118      1.0  0.15844  0.35035  0.11121  1.0000
  H   H119      1.0  0.18572  0.36398  0.09609  1.0000
  H   H120      1.0  0.19528  0.32969  0.06462  1.0000
  H   H121      1.0  0.20127  0.29989  0.08041  1.0000
  H   H122      1.0  0.15887  0.31133  0.13873  1.0000
  H   H123      1.0  0.18295  0.31899  0.16583  1.0000
  H   H124      1.0  0.22160  0.33347  0.15020  1.0000
  H   H125      1.0  0.22843  0.31175  0.11967  1.0000
  H   H126      1.0  0.22633  0.36857  0.11045  1.0000
  H   H127      1.0  0.23119  0.34645  0.07891  1.0000
  H   H128      1.0  0.16962  0.35854  0.16699  1.0000
  H   H129      1.0  0.20005  0.36940  0.15605  1.0000
  H   H130      1.0  0.20888  0.28318  0.14877  1.0000
  H   H131      1.0  0.18601  0.27452  0.11924  1.0000
  H   H132      1.0  0.15436  0.29444  0.08963  1.0000
  H   H133      1.0  0.14935  0.32469  0.07255  1.0000
  H   H134      1.0  0.02632  0.38119  0.07088  1.0000
  H   H135      1.0  0.17413  0.28054  0.03849  1.0000
  H   H136      1.0  0.14262  0.29131  0.03311  1.0000
  H   H137      1.0  0.05152  0.00082  0.13013  1.0000
  C   C77       1.0  0.26036  0.05851  0.19638  1.0000
  H   H138      1.0  0.22312  0.34976  0.34636  1.0000
  C   C78       1.0  0.01165  0.46374  0.25278  1.0000
  H   H139      1.0  0.17066  0.40401  0.16598  1.0000
  H   H140      1.0  0.18129  0.40403  0.12499  1.0000
  H   H141      1.0  0.18224  0.24977  0.16860  1.0000
  H   H142      1.0  0.29805  0.17531  0.06500  1.0000
  H   H143      1.0  0.24252  0.39938  0.39954  1.0000
  H   H144      1.0  0.24976  0.09426  0.17622  1.0000
  S   S23       1.0  0.27966  0.30071  0.48649  1.0000
  H   H145      1.0  0.29646  0.31784  0.30696  1.0000
  S   S24       1.0  0.32545  0.35646  0.47142  1.0000
  C   C79       1.0  0.24000  0.03560  0.26877  1.0000
  C   C80       1.0  0.03071  0.40052  0.06374  1.0000
  H   H146      1.0  0.24959  0.45320  0.45542  1.0000
  C   C81       1.0  0.26769  0.02912  0.26165  1.0000
  H   H147      1.0  0.24306  0.20938  0.43841  1.0000
  C   C82       1.0  0.25969  0.20057  0.44947  1.0000
  C   C83       1.0  0.07435  0.03600  0.25727  1.0000
  H   H148      1.0  0.06048  0.43404  0.03288  1.0000
  H   H149      1.0  0.10873  0.47071  0.46137  1.0000
  H   H150      1.0  0.15044  0.39299  0.13444  1.0000
  H   H151      1.0  0.00773  0.05038  0.11423  1.0000
  C   C84       1.0  0.30336  0.30409  0.32489  1.0000
  H   H152      1.0  0.07759  0.48317  0.46090  1.0000
  H   H153      1.0  0.30568  0.20578  0.11315  1.0000
  C   C85       1.0  0.27847  0.32064  0.37063  1.0000
  C   C86       1.0  0.31544  0.18556  0.07006  1.0000
  H   H154      1.0  0.31666  0.41505  0.38078  1.0000
  H   H155      1.0  0.11976  0.45427  0.21305  1.0000
  C   C87       1.0  0.99479  0.01285  0.48031  1.0000
  C   C88       1.0  0.31689  0.29723  0.38045  1.0000
  H   H156      1.0  0.01069  0.99729  0.34658  1.0000
  H   H157      1.0  0.03066  0.14357  0.21742  1.0000
  Fe  Fe12      1.0  0.28655  0.34180  0.48231  1.0000
  H   H158      1.0  0.26903  0.33056  0.10689  1.0000
  C   C89       1.0  0.26089  0.34886  0.11337  1.0000
  H   H159      1.0  0.29644  0.02819  0.20866  1.0000
  H   H160      1.0  0.01464  0.02216  0.27398  1.0000
  H   H161      1.0  0.09297  0.40292  0.46364  1.0000
  H   H162      1.0  0.05651  0.38969  0.02756  1.0000
  H   H163      1.0  0.26945  0.39976  0.44722  1.0000
  H   H164      1.0  0.23603  0.01115  0.31022  1.0000
  H   H165      1.0  0.25179  0.03995  0.19904  1.0000
  H   H166      1.0  0.29697  0.26471  0.33551  1.0000
  C   C90       1.0  0.26275  0.41777  0.43786  1.0000
  C   C91       1.0  0.01825  0.41759  0.44012  1.0000
  H   H167      1.0  0.00438  0.42452  0.45765  1.0000
  S   S25       1.0  0.22219  0.30471  0.00614  1.0000
  C   C92       1.0  0.29264  0.15509  0.12409  1.0000
  H   H168      1.0  0.02548  0.01291  0.08907  1.0000
  C   C93       1.0  0.26841  0.17046  0.12732  1.0000
  H   H169      1.0  0.02042  0.43150  0.42062  1.0000
  C   C94       1.0  0.24563  0.15501  0.11837  1.0000
  C   C95       1.0  0.24124  0.07595  0.18116  1.0000
  C   C96       1.0  0.31723  0.09587  0.17729  1.0000
  H   H170      1.0  0.10479  0.00924  0.25469  1.0000
  H   H171      1.0  0.26868  0.28229  0.33084  1.0000
  H   H172      1.0  0.26598  0.17663  0.15249  1.0000
  H   H173      1.0  0.26855  0.18692  0.11135  1.0000
  C   C97       1.0  0.31830  0.33950  0.35642  1.0000
  H   H174      1.0  0.26891  0.30318  0.37749  1.0000
  H   H175      1.0  0.26710  0.01360  0.24400  1.0000
  H   H176      1.0  0.01097  0.40018  0.42946  1.0000
  C   C98       1.0  0.31656  0.17918  0.16285  1.0000
  C   C99       1.0  0.28607  0.27144  0.28685  1.0000
  H   H177      1.0  0.06668  0.47414  0.02286  1.0000
  H   H178      1.0  0.13825  0.48065  0.20168  1.0000
  H   H179      1.0  0.00730  0.01285  0.14824  1.0000
  H   H180      1.0  0.29767  0.22099  0.05852  1.0000
  H   H181      1.0  0.27066  0.24240  0.48613  1.0000
  C   C100      1.0  0.00110  0.48354  0.02463  1.0000
  H   H182      1.0  0.31207  0.20568  0.02494  1.0000
  C   C101      1.0  0.04307  0.41252  0.45692  1.0000
  C   C102      1.0  0.31405  0.20980  0.05097  1.0000
  C   C103      1.0  0.10459  0.48962  0.22846  1.0000
  H   H183      1.0  0.04032  0.99466  0.04354  1.0000
  H   H184      1.0  0.09458  0.02118  0.21611  1.0000
  H   H185      1.0  0.24353  0.42742  0.48085  1.0000
  C   C104      1.0  0.05477  0.43689  0.46967  1.0000
  H   H186      1.0  0.22897  0.23631  0.47306  1.0000
  H   H187      1.0  0.31328  0.00710  0.26065  1.0000
  C   C105      1.0  0.09800  0.42232  0.46997  1.0000
  H   H188      1.0  0.23914  0.17909  0.48436  1.0000
  C   C106      1.0  0.07473  0.47106  0.99867  1.0000
  H   H189      1.0  0.19376  0.26580  0.48093  1.0000
  H   H190      1.0  0.30724  0.07950  0.33951  1.0000
  H   H191      1.0  0.13739  0.38953  0.45745  1.0000
  C   C107      1.0  0.14296  0.40885  0.46312  1.0000
  H   H192      1.0  0.29554  0.40542  0.48632  1.0000
  H   H193      1.0  0.03952  0.39906  0.47649  1.0000
  N   N6        1.0  0.28055  0.44277  0.48615  1.0000
  H   H194      1.0  0.99875  0.99548  0.07811  1.0000
  H   H195      1.0  0.04031  0.44768  0.48271  1.0000
  C   C108      1.0  0.12417  0.42092  0.48576  1.0000
  H   H196      1.0  0.06508  0.99298  0.07267  1.0000
  H   H197      1.0  0.09356  0.49225  0.20615  1.0000
  S   S26       1.0  0.06573  0.01387  0.85435  1.0000
  C   C109      1.0  0.24235  0.30512  0.78415  1.0000
  H   H198      1.0  0.32210  0.33432  0.90444  1.0000
  H   H199      1.0  0.25780  0.31997  0.87838  1.0000
  Fe  Fe13      1.0  0.10766  0.01119  0.85314  1.0000
  S   S27       1.0  0.13874  0.04004  0.85130  1.0000
  Fe  Fe14      1.0  0.24009  0.17969  0.70689  1.0000
  S   S28       1.0  0.27745  0.17598  0.73144  1.0000
  S   S29       1.0  0.22677  0.20179  0.66301  1.0000
  Fe  Fe15      1.0  0.21443  0.14512  0.75569  1.0000
  S   S30       1.0  0.24958  0.14015  0.78439  1.0000
  S   S31       1.0  0.17632  0.12671  0.75973  1.0000
  Fe  Fe16      1.0  0.25566  0.18124  0.77749  1.0000
  S   S32       1.0  0.27292  0.20629  0.81623  1.0000
  Fe  Fe17      1.0  0.26861  0.13520  0.73646  1.0000
  S   S33       1.0  0.29115  0.09910  0.73326  1.0000
  S   S34       1.0  0.21885  0.18660  0.75263  1.0000
  S   S35       1.0  0.23307  0.13857  0.70830  1.0000
  H   H200      1.0  0.21074  0.21203  0.48996  1.0000
  S   S36       1.0  0.27052  0.34983  0.53091  1.0000
  C   C110      1.0  0.32496  0.10364  0.68296  1.0000
  Fe  Fe18      1.0  0.24151  0.30457  0.95760  1.0000
  H   H201      1.0  0.20984  0.06104  0.67201  1.0000
  S   S37       1.0  0.22492  0.28513  0.91336  1.0000
  Fe  Fe19      1.0  0.26081  0.30928  0.53346  1.0000
  S   S38       1.0  0.27459  0.28719  0.57702  1.0000
  C   C111      1.0  0.07080  0.39028  0.96098  1.0000
  H   H202      1.0  0.05083  0.01439  0.57645  1.0000
  H   H203      1.0  0.00536  0.05428  0.60566  1.0000
  S   S39       1.0  0.24665  0.34630  0.95685  1.0000
  H   H204      1.0  0.04363  0.99850  0.52170  1.0000
  S   S40       1.0  0.05919  0.46319  0.61290  1.0000
  C   C112      1.0  0.29491  0.22334  0.52015  1.0000
  H   H205      1.0  0.17553  0.24158  0.49959  1.0000
  Fe  Fe20      1.0  0.10092  0.45976  0.60725  1.0000
  S   S41       1.0  0.11718  0.42173  0.59437  1.0000
  H   H206      1.0  0.18504  0.24208  0.67804  1.0000
  H   H207      1.0  0.07593  0.00558  0.52804  1.0000
  H   H208      1.0  0.18805  0.27609  0.71838  1.0000
  H   H209      1.0  0.05028  0.10431  0.92672  1.0000
  Fe  Fe21      1.0  0.23385  0.35519  0.50557  1.0000
  C   C113      1.0  0.18724  0.40009  0.53659  1.0000
  C   C114      1.0  0.17291  0.38209  0.55202  1.0000
  C   C115      1.0  0.15169  0.38911  0.56977  1.0000
  C   C116      1.0  0.14462  0.41417  0.57260  1.0000
  C   C117      1.0  0.15899  0.43220  0.55726  1.0000
  C   C118      1.0  0.18007  0.42516  0.53925  1.0000
  H   H210      1.0  0.17804  0.36274  0.55009  1.0000
  H   H211      1.0  0.14066  0.37499  0.58141  1.0000
  H   H212      1.0  0.15374  0.45152  0.55905  1.0000
  H   H213      1.0  0.32698  0.46614  0.50105  1.0000
  C   C119      1.0  0.24038  0.22591  0.64004  1.0000
  C   C120      1.0  0.26576  0.23132  0.64172  1.0000
  C   C121      1.0  0.27580  0.25023  0.62235  1.0000
  C   C122      1.0  0.26068  0.26388  0.60103  1.0000
  C   C123      1.0  0.23524  0.25868  0.59962  1.0000
  C   C124      1.0  0.22521  0.23969  0.61889  1.0000
  H   H214      1.0  0.27774  0.22056  0.65737  1.0000
  H   H215      1.0  0.29552  0.25412  0.62361  1.0000
  H   H216      1.0  0.22331  0.26937  0.58384  1.0000
  H   H217      1.0  0.20553  0.23566  0.61745  1.0000
  C   C125      1.0  0.23843  0.26263  0.88720  1.0000
  C   C126      1.0  0.22435  0.25362  0.86110  1.0000
  C   C127      1.0  0.23437  0.23607  0.83948  1.0000
  C   C128      1.0  0.25875  0.22745  0.84355  1.0000
  C   C129      1.0  0.27283  0.23646  0.86963  1.0000
  C   C130      1.0  0.26269  0.25372  0.89150  1.0000
  H   H218      1.0  0.20549  0.26016  0.85769  1.0000
  H   H219      1.0  0.22325  0.22925  0.81968  1.0000
  H   H220      1.0  0.29159  0.22969  0.87323  1.0000
  H   H221      1.0  0.27353  0.25991  0.91187  1.0000
  C   C131      1.0  0.14999  0.06227  0.82352  1.0000
  C   C132      1.0  0.17165  0.07548  0.83152  1.0000
  C   C133      1.0  0.18035  0.09479  0.81177  1.0000
  C   C134      1.0  0.16735  0.10122  0.78388  1.0000
  C   C135      1.0  0.14584  0.08780  0.77560  1.0000
  C   C136      1.0  0.13734  0.06820  0.79509  1.0000
  H   H222      1.0  0.18153  0.07108  0.85351  1.0000
  H   H223      1.0  0.19674  0.10516  0.81861  1.0000
  H   H224      1.0  0.13557  0.09277  0.75412  1.0000
  H   H225      1.0  0.12073  0.05813  0.78851  1.0000
  H   H226      1.0  0.18135  0.04481  0.76156  1.0000
  H   H227      1.0  0.03707  0.09842  0.88809  1.0000
  H   H228      1.0  0.99461  0.03220  0.73613  1.0000
  H   H229      1.0  0.32644  0.30894  0.94594  1.0000
  C   C137      1.0  0.04725  0.40564  0.56731  1.0000
  C   C138      1.0  0.19866  0.06353  0.69415  1.0000
  C   C139      1.0  0.27749  0.24644  0.72200  1.0000
  H   H230      1.0  0.24498  0.34199  0.68749  1.0000
  C   C140      1.0  0.04972  0.42337  0.53885  1.0000
  H   H231      1.0  0.32636  0.43758  0.82980  1.0000
  H   H232      1.0  0.10055  0.45727  0.52071  1.0000
  H   H233      1.0  0.25995  0.30626  0.72033  1.0000
  H   H234      1.0  0.06976  0.46794  0.51565  1.0000
  H   H235      1.0  0.25181  0.42725  0.96298  1.0000
  H   H236      1.0  0.23808  0.33098  0.82372  1.0000
  C   C141      1.0  0.25773  0.44678  0.95933  1.0000
  H   H237      1.0  0.21066  0.29665  0.68416  1.0000
  C   C142      1.0  0.27600  0.32960  0.87949  1.0000
  H   H238      1.0  0.22692  0.23593  0.73414  1.0000
  H   H239      1.0  0.02462  0.01453  0.77580  1.0000
  H   H240      1.0  0.20125  0.03141  0.79221  1.0000
  C   C143      1.0  0.23878  0.07040  0.78621  1.0000
  C   C144      1.0  0.18051  0.23886  0.70374  1.0000
  H   H241      1.0  0.30339  0.37673  0.91241  1.0000
  H   H242      1.0  0.22769  0.25105  0.69651  1.0000
  C   C145      1.0  0.99745  0.48620  0.77586  1.0000
  H   H243      1.0  0.26622  0.23021  0.71462  1.0000
  H   H244      1.0  0.18557  0.21950  0.71018  1.0000
  H   H245      1.0  0.16014  0.24117  0.70690  1.0000
  C   C146      1.0  0.30862  0.46620  0.88142  1.0000
  N   N7        1.0  0.08971  0.09708  0.87758  1.0000
  C   C147      1.0  0.08680  0.07477  0.89923  1.0000
  C   C148      1.0  0.08482  0.08922  0.84331  1.0000
  C   C149      1.0  0.11656  0.10532  0.87975  1.0000
  C   C150      1.0  0.07314  0.11858  0.88698  1.0000
  H   H246      1.0  0.22409  0.00709  0.75298  1.0000
  C   C151      1.0  0.09604  0.07829  0.93431  1.0000
  C   C152      1.0  0.12472  0.12575  0.85570  1.0000
  C   C153      1.0  0.05809  0.08082  0.83503  1.0000
  C   C154      1.0  0.05682  0.06978  0.80121  1.0000
  H   H247      1.0  0.26398  0.24741  0.52701  1.0000
  C   C155      1.0  0.17491  0.00659  0.77164  1.0000
  C   C156      1.0  0.14962  0.13716  0.86545  1.0000
  H   H248      1.0  0.09731  0.05866  0.88936  1.0000
  H   H249      1.0  0.06726  0.06829  0.89993  1.0000
  H   H250      1.0  0.08866  0.10456  0.82623  1.0000
  H   H251      1.0  0.09772  0.07390  0.83681  1.0000
  H   H252      1.0  0.12932  0.08923  0.87638  1.0000
  H   H253      1.0  0.12075  0.11252  0.90422  1.0000
  H   H254      1.0  0.08270  0.13080  0.90471  1.0000
  H   H255      1.0  0.06961  0.13070  0.86572  1.0000
  C   C157      1.0  0.03136  0.13531  0.90566  1.0000
  C   C158      1.0  0.21318  0.24534  0.51879  1.0000
  H   H256      1.0  0.11669  0.07720  0.93506  1.0000
  C   C159      1.0  0.02200  0.48590  0.72611  1.0000
  H   H257      1.0  0.11075  0.14089  0.85411  1.0000
  H   H258      1.0  0.12723  0.11767  0.83140  1.0000
  H   H259      1.0  0.05136  0.06658  0.85194  1.0000
  H   H260      1.0  0.04527  0.09699  0.83548  1.0000
  H   H261      1.0  0.23447  0.02995  0.68591  1.0000
  H   H262      1.0  0.06918  0.05330  0.79931  1.0000
  H   H263      1.0  0.31492  0.25231  0.74081  1.0000
  H   H264      1.0  0.26254  0.48193  0.57061  1.0000
  H   H265      1.0  0.31265  0.05097  0.72455  1.0000
  H   H266      1.0  0.25064  0.16290  0.53780  1.0000
  H   H267      1.0  0.26078  0.45526  0.98334  1.0000
  C   C160      1.0  0.31495  0.39957  0.54772  1.0000
  H   H268      1.0  0.29573  0.43631  0.95305  1.0000
  H   H269      1.0  0.16403  0.12254  0.86849  1.0000
  H   H270      1.0  0.15592  0.15012  0.84638  1.0000
  H   H271      1.0  0.14776  0.14764  0.88827  1.0000
  C   C161      1.0  0.19439  0.25727  0.72511  1.0000
  S   S42       1.0  0.21366  0.39234  0.51283  1.0000
  C   C162      1.0  0.24336  0.20287  0.54108  1.0000
  C   C163      1.0  0.02811  0.42397  0.96277  1.0000
  H   H272      1.0  0.29407  0.29705  0.89765  1.0000
  H   H273      1.0  0.29319  0.48247  0.95853  1.0000
  H   H274      1.0  0.04083  0.14943  0.92077  1.0000
  C   C164      1.0  0.00814  0.41859  0.90769  1.0000
  H   H275      1.0  0.20794  0.23687  0.54208  1.0000
  C   C165      1.0  0.99649  0.01230  0.73840  1.0000
  H   H276      1.0  0.27768  0.43790  0.91649  1.0000
  C   C166      1.0  0.22305  0.25400  0.72226  1.0000
  C   C167      1.0  0.18952  0.25631  0.50399  1.0000
  C   C168      1.0  0.32683  0.47346  0.85395  1.0000
  H   H277      1.0  0.25930  0.29690  0.79520  1.0000
  H   H278      1.0  0.10468  0.37550  0.98289  1.0000
  H   H279      1.0  0.28817  0.46974  0.52380  1.0000
  C   C169      1.0  0.24745  0.05017  0.76229  1.0000
  H   H280      1.0  0.32618  0.26432  0.96224  1.0000
  H   H281      1.0  0.08918  0.41773  0.53547  1.0000
  H   H282      1.0  0.03467  0.47136  0.77162  1.0000
  H   H283      1.0  0.31598  0.24974  0.49141  1.0000
  S   S43       1.0  0.27941  0.29663  0.97826  1.0000
  H   H284      1.0  0.24783  0.32047  0.76793  1.0000
  H   H285      1.0  0.16904  0.08853  0.70920  1.0000
  H   H286      1.0  0.05086  0.44244  0.54851  1.0000
  C   C170      1.0  0.01352  0.00234  0.76099  1.0000
  C   C171      1.0  0.31086  0.42297  0.52764  1.0000
  H   H287      1.0  0.20971  0.32496  0.80207  1.0000
  H   H288      1.0  0.25038  0.08790  0.83064  1.0000
  H   H289      1.0  0.04527  0.38623  0.55883  1.0000
  H   H290      1.0  0.18859  0.25383  0.75034  1.0000
  H   H291      1.0  0.22341  0.19753  0.54318  1.0000
  H   H292      1.0  0.18621  0.04736  0.69708  1.0000
  C   C172      1.0  0.30217  0.23672  0.73538  1.0000
  S   S44       1.0  0.04335  0.00856  0.94011  1.0000
  H   H293      1.0  0.29550  0.30142  0.85437  1.0000
  C   C173      1.0  0.32187  0.38380  0.91681  1.0000
  H   H294      1.0  0.12368  0.40961  0.50802  1.0000
  H   H295      1.0  0.02716  0.14341  0.88167  1.0000
  H   H296      1.0  0.16084  0.01087  0.79035  1.0000
  C   C174      1.0  0.29066  0.47438  0.93426  1.0000
  H   H297      1.0  0.03749  0.06388  0.79578  1.0000
  H   H298      1.0  0.01146  0.46574  0.54615  1.0000
  C   C175      1.0  0.32282  0.45740  0.82415  1.0000
  C   C176      1.0  0.25463  0.17369  0.58709  1.0000
  H   H299      1.0  0.02035  0.03779  0.88556  1.0000
  C   C177      1.0  0.31369  0.08813  0.70551  1.0000
  H   H300      1.0  0.23775  0.08863  0.77393  1.0000
  C   C178      1.0  0.29706  0.31061  0.87806  1.0000
  H   H301      1.0  0.31119  0.22457  0.71727  1.0000
  H   H302      1.0  0.27715  0.34276  0.85902  1.0000
  C   C179      1.0  0.26464  0.01434  0.71314  1.0000
  C   C180      1.0  0.31431  0.24382  0.51686  1.0000
  C   C181      1.0  0.04762  0.11217  0.90229  1.0000
  C   C182      1.0  0.19275  0.02845  0.76824  1.0000
  H   H303      1.0  0.26392  0.18819  0.60167  1.0000
  H   H304      1.0  0.23461  0.17297  0.59361  1.0000
  H   H305      1.0  0.26331  0.15556  0.59315  1.0000
  H   H306      1.0  0.25376  0.28443  0.68985  1.0000
  H   H307      1.0  0.29356  0.99341  0.68878  1.0000
  H   H308      1.0  0.32470  0.40169  0.87056  1.0000
  H   H309      1.0  0.27779  0.01890  0.73285  1.0000
  H   H310      1.0  0.28195  0.25741  0.70029  1.0000
  H   H311      1.0  0.06113  0.46186  0.95150  1.0000
  H   H312      1.0  0.24642  0.21730  0.55981  1.0000
  H   H313      1.0  0.06378  0.40693  0.58332  1.0000
  N   N8        1.0  0.23936  0.27407  0.73646  1.0000
  C   C183      1.0  0.28906  0.41969  0.50364  1.0000
  H   H314      1.0  0.25737  0.05208  0.69759  1.0000
  C   C184      1.0  0.24542  0.29334  0.71136  1.0000
  C   C185      1.0  0.22336  0.30876  0.69812  1.0000
  C   C186      1.0  0.22524  0.22609  0.49582  1.0000
  H   H315      1.0  0.24243  0.32032  0.65436  1.0000
  H   H316      1.0  0.09172  0.03941  0.94749  1.0000
  H   H317      1.0  0.19348  0.10328  0.68648  1.0000
  N   N9        1.0  0.05064  0.43128  0.98238  1.0000
  H   H318      1.0  0.25451  0.99721  0.71975  1.0000
  H   H319      1.0  0.26020  0.25004  0.76864  1.0000
  C   C187      1.0  0.23242  0.32881  0.67497  1.0000
  H   H320      1.0  0.27692  0.27666  0.75547  1.0000
  H   H321      1.0  0.21294  0.31810  0.71760  1.0000
  H   H322      1.0  0.23067  0.47176  0.57257  1.0000
  C   C188      1.0  0.21598  0.06687  0.72379  1.0000
  H   H323      1.0  0.01078  0.39816  0.90817  1.0000
  C   C189      1.0  0.07308  0.41718  0.51862  1.0000
  H   H324      1.0  0.16498  0.00310  0.74865  1.0000
  H   H325      1.0  0.20904  0.29387  0.75963  1.0000
  H   H326      1.0  0.01101  0.43260  0.97303  1.0000
  H   H327      1.0  0.09321  0.35801  0.94911  1.0000
  C   C190      1.0  0.18211  0.08624  0.68885  1.0000
  H   H328      1.0  0.06242  0.39040  0.93657  1.0000
  C   C191      1.0  0.01673  0.00516  0.62185  1.0000
  H   H329      1.0  0.21624  0.33934  0.66534  1.0000
  S   S45       1.0  0.22278  0.31504  0.51135  1.0000
  H   H330      1.0  0.00661  0.00603  0.64515  1.0000
  C   C192      1.0  0.08613  0.05802  0.95644  1.0000
  N   N10       1.0  0.07780  0.43387  0.49015  1.0000
  H   H331      1.0  0.22032  0.06624  0.79617  1.0000
  H   H332      1.0  0.29071  0.02506  0.67547  1.0000
  H   H333      1.0  0.03243  0.42181  0.52439  1.0000
  H   H334      1.0  0.08448  0.42711  0.95430  1.0000
  S   S46       1.0  0.10909  0.48008  0.65333  1.0000
  H   H335      1.0  0.02466  0.40376  0.96409  1.0000
  C   C193      1.0  0.22716  0.28521  0.76577  1.0000
  H   H336      1.0  0.26564  0.05701  0.75327  1.0000
  N   N11       1.0  0.23024  0.04408  0.73445  1.0000
  N   N12       1.0  0.31374  0.47749  0.91409  1.0000
  H   H337      1.0  0.32614  0.24196  0.80751  1.0000
  H   H338      1.0  0.27698  0.34015  0.90226  1.0000
  H   H339      1.0  0.28962  0.47134  0.87289  1.0000
  H   H340      1.0  0.22270  0.27020  0.78329  1.0000
  H   H341      1.0  0.25837  0.05547  0.82803  1.0000
  H   H342      1.0  0.30918  0.26011  0.53180  1.0000
  H   H343      1.0  0.22227  0.30196  0.82947  1.0000
  H   H344      1.0  0.27804  0.18053  0.54660  1.0000
  C   C194      1.0  0.22709  0.31637  0.81145  1.0000
  C   C195      1.0  0.09590  0.37701  0.95874  1.0000
  C   C196      1.0  0.26353  0.26227  0.74740  1.0000
  H   H345      1.0  0.06252  0.08372  0.78301  1.0000
  C   C197      1.0  0.28166  0.44733  0.93961  1.0000
  C   C198      1.0  0.28008  0.00850  0.68329  1.0000
  H   H346      1.0  0.24253  0.45684  0.94666  1.0000
  H   H347      1.0  0.25200  0.03316  0.77634  1.0000
  H   H348      1.0  0.01351  0.13032  0.91731  1.0000
  H   H349      1.0  0.03053  0.41063  0.58153  1.0000
  H   H350      1.0  0.04690  0.42702  0.91575  1.0000
  C   C199      1.0  0.25153  0.45586  0.53309  1.0000
  H   H351      1.0  0.20439  0.07445  0.74348  1.0000
  C   C200      1.0  0.24622  0.03603  0.70648  1.0000
  H   H352      1.0  0.27572  0.07832  0.80529  1.0000
  C   C201      1.0  0.00699  0.47465  0.52356  1.0000
  H   H353      1.0  0.32336  0.33741  0.86224  1.0000
  C   C202      1.0  0.01943  0.48025  0.75900  1.0000
  H   H354      1.0  0.23396  0.45154  0.52032  1.0000
  C   C203      1.0  0.02868  0.43151  0.92678  1.0000
  H   H355      1.0  0.29823  0.39546  0.56237  1.0000
  H   H356      1.0  0.25696  0.43961  0.54794  1.0000
  H   H357      1.0  0.03211  0.01879  0.62439  1.0000
  C   C204      1.0  0.27242  0.46291  0.50909  1.0000
  H   H358      1.0  0.22929  0.08205  0.71794  1.0000
  Fe  Fe22      1.0  0.28367  0.33824  0.97998  1.0000
  H   H359      1.0  0.00856  0.42492  0.88229  1.0000
  S   S47       1.0  0.05095  0.47955  0.70692  1.0000
  H   H360      1.0  0.22605  0.26088  0.52362  1.0000
  H   H361      1.0  0.31905  0.38346  0.53200  1.0000
  H   H362      1.0  0.02545  0.45180  0.92436  1.0000
  C   C205      1.0  0.25700  0.07307  0.81424  1.0000
  C   C206      1.0  0.25787  0.17914  0.55132  1.0000
  H   H363      1.0  0.27499  0.48497  0.92313  1.0000
  H   H364      1.0  0.30752  0.43834  0.54468  1.0000
  H   H365      1.0  0.00726  0.01632  0.57196  1.0000
  H   H366      1.0  0.30890  0.44560  0.88304  1.0000
  C   C207      1.0  0.08540  0.45905  0.50250  1.0000
  H   H367      1.0  0.09036  0.09656  0.94407  1.0000
  H   H368      1.0  0.07182  0.39743  0.51109  1.0000
  H   H369      1.0  0.99591  0.48191  0.80117  1.0000
  H   H370      1.0  0.19078  0.43925  0.52719  1.0000
  Fe  Fe23      1.0  0.06747  0.48632  0.65676  1.0000
  C   C208      1.0  0.02142  0.99519  0.96688  1.0000
  H   H371      1.0  0.29910  0.22568  0.75755  1.0000
  H   H372      1.0  0.06551  0.05898  0.95783  1.0000
  C   C209      1.0  0.07402  0.41721  0.97346  1.0000
  H   H373      1.0  0.17101  0.08391  0.66650  1.0000
  H   H374      1.0  0.30129  0.20745  0.50547  1.0000
  C   C210      1.0  0.05614  0.99494  0.57133  1.0000
  H   H375      1.0  0.99874  0.06016  0.86942  1.0000
  C   C211      1.0  0.21319  0.02292  0.74308  1.0000
  C   C212      1.0  0.06063  0.99296  0.53518  1.0000
  H   H376      1.0  0.20404  0.01536  0.72117  1.0000
  H   H377      1.0  0.26790  0.00234  0.66322  1.0000
  H   H378      1.0  0.30355  0.45961  0.81486  1.0000
  H   H379      1.0  0.01312  0.03798  0.84289  1.0000
  C   C213      1.0  0.26890  0.23261  0.50957  1.0000
  C   C214      1.0  0.32251  0.32343  0.88183  1.0000
  H   H380      1.0  0.32213  0.27386  0.79575  1.0000
  H   H381      1.0  0.27319  0.41076  0.51625  1.0000
  H   H382      1.0  0.10863  0.38720  0.94246  1.0000
  H   H383      1.0  0.00875  0.03081  0.98379  1.0000
  H   H384      1.0  0.13129  0.43961  0.49188  1.0000
  C   C215      1.0  0.24587  0.47726  0.55601  1.0000
  S   S48       1.0  0.32143  0.35739  0.97443  1.0000
  H   H385      1.0  0.27127  0.18212  0.49257  1.0000
  H   H386      1.0  0.31668  0.26752  0.85441  1.0000
  C   C216      1.0  0.05507  0.45860  0.97670  1.0000
  H   H387      1.0  0.18138  0.27016  0.52068  1.0000
  C   C217      1.0  0.99844  0.01515  0.59595  1.0000
  H   H388      1.0  0.03744  0.46924  0.97938  1.0000
  N   N13       1.0  0.24859  0.21340  0.50798  1.0000
  H   H389      1.0  0.31957  0.12295  0.68158  1.0000
  H   H390      1.0  0.26587  0.47939  0.49518  1.0000
  C   C218      1.0  0.00672  0.01094  0.98603  1.0000
  C   C219      1.0  0.32111  0.06309  0.70705  1.0000
  H   H391      1.0  0.29451  0.21796  0.54590  1.0000
  C   C220      1.0  0.00544  0.04073  0.86739  1.0000
  H   H392      1.0  0.09386  0.06045  0.98100  1.0000
  H   H393      1.0  0.05862  0.37905  0.97656  1.0000
  H   H394      1.0  0.00297  0.99335  0.84733  1.0000
  Fe  Fe24      1.0  0.21673  0.63806  0.22046  1.0000
  S   S49       1.0  0.25467  0.63239  0.19928  1.0000
  S   S50       1.0  0.17995  0.62727  0.19576  1.0000
  Fe  Fe25      1.0  0.23822  0.66932  0.27659  1.0000
  S   S51       1.0  0.27768  0.66534  0.25901  1.0000
  S   S52       1.0  0.22376  0.68958  0.32140  1.0000
  Fe  Fe26      1.0  0.26144  0.67277  0.20958  1.0000
  S   S53       1.0  0.28210  0.69698  0.17306  1.0000
  Fe  Fe27      1.0  0.26796  0.62527  0.25003  1.0000
  S   S54       1.0  0.29139  0.58998  0.25637  1.0000
  S   S55       1.0  0.22274  0.67919  0.22769  1.0000
  S   S56       1.0  0.22928  0.62860  0.27066  1.0000
  H   H395      1.0  0.21855  0.72353  0.44280  1.0000
  S   S57       1.0  0.26307  0.84434  0.44718  1.0000
  C   C221      1.0  0.24447  0.94734  0.47643  1.0000
  Fe  Fe28      1.0  0.25078  0.79811  0.03035  1.0000
  C   C222      1.0  0.05245  0.98175  0.05742  1.0000
  S   S58       1.0  0.23663  0.77597  0.07390  1.0000
  H   H396      1.0  0.30777  0.75444  0.46673  1.0000
  H   H397      1.0  0.23356  0.92118  0.07624  1.0000
  Fe  Fe29      1.0  0.25504  0.80326  0.44529  1.0000
  S   S59       1.0  0.26762  0.78120  0.40101  1.0000
  S   S60       1.0  0.24390  0.83946  0.03128  1.0000
  C   C223      1.0  0.24756  0.95549  0.44102  1.0000
  C   C224      1.0  0.20841  0.90414  0.02320  1.0000
  H   H398      1.0  0.05677  0.59227  0.17158  1.0000
  Fe  Fe30      1.0  0.10215  0.96521  0.37035  1.0000
  S   S61       1.0  0.12551  0.92958  0.37283  1.0000
  S   S62       1.0  0.06025  0.96257  0.36780  1.0000
  H   H399      1.0  0.29293  0.96493  0.47165  1.0000
  H   H400      1.0  0.02813  0.91709  0.37627  1.0000
  S   S63       1.0  0.13938  0.52148  0.14917  1.0000
  C   C225      1.0  0.32047  0.71603  0.25261  1.0000
  H   H401      1.0  0.06287  0.57520  0.22580  1.0000
  S   S64       1.0  0.06418  0.51453  0.13387  1.0000
  H   H402      1.0  0.25259  0.93926  0.42600  1.0000
  H   H403      1.0  0.19022  0.72940  0.28567  1.0000
  H   H404      1.0  0.08195  0.95547  0.04565  1.0000
  H   H405      1.0  0.15740  0.89351  0.02404  1.0000
  H   H406      1.0  0.25922  0.93342  0.99124  1.0000
  C   C226      1.0  0.00583  0.95797  0.12102  1.0000
  H   H407      1.0  0.21273  0.95275  0.04796  1.0000
  C   C227      1.0  0.28331  0.92188  0.08936  1.0000
  H   H408      1.0  0.21523  0.88464  0.02271  1.0000
  C   C228      1.0  0.08291  0.97004  0.16574  1.0000
  C   C229      1.0  0.08512  0.54217  0.21145  1.0000
  C   C230      1.0  0.18209  0.89596  0.44490  1.0000
  C   C231      1.0  0.17027  0.91869  0.45175  1.0000
  C   C232      1.0  0.15305  0.92938  0.43002  1.0000
  C   C233      1.0  0.14732  0.91736  0.40114  1.0000
  C   C234      1.0  0.15920  0.89466  0.39430  1.0000
  C   C235      1.0  0.17649  0.88402  0.41597  1.0000
  C   C236      1.0  0.24764  0.68499  0.41951  1.0000
  H   H409      1.0  0.14407  0.94680  0.43567  1.0000
  H   H410      1.0  0.15491  0.88517  0.37208  1.0000
  H   H411      1.0  0.18536  0.86655  0.41032  1.0000
  C   C237      1.0  0.24744  0.91688  0.99608  1.0000
  H   H412      1.0  0.12233  0.51118  0.26569  1.0000
  H   H413      1.0  0.00119  0.96528  0.40246  1.0000
  H   H414      1.0  0.25196  0.66221  0.37699  1.0000
  H   H415      1.0  0.20561  0.70207  0.46990  1.0000
  C   C238      1.0  0.16921  0.59775  0.18242  1.0000
  C   C239      1.0  0.18278  0.57596  0.18770  1.0000
  C   C240      1.0  0.17336  0.55294  0.17714  1.0000
  C   C241      1.0  0.15031  0.55131  0.16108  1.0000
  C   C242      1.0  0.13680  0.57314  0.15554  1.0000
  C   C243      1.0  0.14617  0.59618  0.16627  1.0000
  H   H416      1.0  0.20049  0.57679  0.20009  1.0000
  H   H417      1.0  0.18403  0.53623  0.18152  1.0000
  H   H418      1.0  0.11920  0.57228  0.14298  1.0000
  H   H419      1.0  0.13549  0.61289  0.16203  1.0000
  C   C244      1.0  0.22314  0.96577  0.42745  1.0000
  H   H420      1.0  0.00731  0.95763  0.36206  1.0000
  H   H421      1.0  0.08014  0.96833  0.11436  1.0000
  H   H422      1.0  0.10020  0.53954  0.19348  1.0000
  H   H423      1.0  0.01969  0.52656  0.48056  1.0000
  C   C245      1.0  0.23622  0.71530  0.34282  1.0000
  C   C246      1.0  0.26094  0.72282  0.33937  1.0000
  C   C247      1.0  0.27009  0.74312  0.35719  1.0000
  C   C248      1.0  0.25480  0.75598  0.37898  1.0000
  C   C249      1.0  0.23010  0.74842  0.38254  1.0000
  C   C250      1.0  0.22089  0.72825  0.36450  1.0000
  H   H424      1.0  0.27313  0.71269  0.32347  1.0000
  H   H425      1.0  0.28927  0.74869  0.35442  1.0000
  H   H426      1.0  0.21804  0.75825  0.39896  1.0000
  H   H427      1.0  0.20174  0.72260  0.36737  1.0000
  C   C251      1.0  0.26913  0.71867  0.14541  1.0000
  C   C252      1.0  0.24450  0.72678  0.14777  1.0000
  C   C253      1.0  0.23491  0.74415  0.12553  1.0000
  C   C254      1.0  0.24985  0.75381  0.10079  1.0000
  C   C255      1.0  0.27455  0.74579  0.09854  1.0000
  C   C256      1.0  0.28412  0.72839  0.12080  1.0000
  H   H428      1.0  0.23297  0.71979  0.16691  1.0000
  H   H429      1.0  0.21584  0.75037  0.12766  1.0000
  H   H430      1.0  0.28631  0.75308  0.07975  1.0000
  H   H431      1.0  0.30327  0.72236  0.11887  1.0000
  H   H432      1.0  0.32422  0.85826  0.06746  1.0000
  C   C257      1.0  0.21986  0.71693  0.46810  1.0000
  C   C258      1.0  0.25311  0.66009  0.40353  1.0000
  H   H433      1.0  0.19337  0.72845  0.24263  1.0000
  C   C259      1.0  0.18962  0.90631  0.05127  1.0000
  C   C260      1.0  0.11350  0.51490  0.24187  1.0000
  H   H434      1.0  0.26136  0.69849  0.41022  1.0000
  H   H435      1.0  0.07983  0.51741  0.28773  1.0000
  H   H436      1.0  0.23928  0.64597  0.41098  1.0000
  H   H437      1.0  0.29471  0.70092  0.44825  1.0000
  H   H438      1.0  0.17171  0.73398  0.48045  1.0000
  C   C261      1.0  0.25762  0.81579  0.30456  1.0000
  H   H439      1.0  0.24604  0.83284  0.30591  1.0000
  H   H440      1.0  0.29838  0.71240  0.48861  1.0000
  H   H441      1.0  0.08875  0.98976  0.16649  1.0000
  C   C262      1.0  0.01372  0.50546  0.01733  1.0000
  C   C263      1.0  0.13053  0.56580  0.24924  1.0000
  C   C264      1.0  0.30192  0.89656  0.43088  1.0000
  N   N14       1.0  0.09390  0.53495  0.24478  1.0000
  H   H442      1.0  0.12878  0.52113  0.22574  1.0000
  C   C265      1.0  0.03616  0.96418  0.07799  1.0000
  C   C266      1.0  0.13718  0.59136  0.26245  1.0000
  H   H443      1.0  0.04009  0.54554  0.24815  1.0000
  H   H444      1.0  0.27748  0.82114  0.30702  1.0000
  C   C267      1.0  0.26985  0.93017  0.05872  1.0000
  H   H445      1.0  0.99606  0.96632  0.14182  1.0000
  H   H446      1.0  0.05645  0.55995  0.28137  1.0000
  H   H447      1.0  0.28255  0.92651  0.03834  1.0000
  H   H448      1.0  0.26624  0.67332  0.46382  1.0000
  C   C268      1.0  0.01518  0.93250  0.13328  1.0000
  C   C269      1.0  0.06788  0.96479  0.13524  1.0000
  H   H449      1.0  0.31612  0.92467  0.46210  1.0000
  H   H450      1.0  0.19845  0.90118  0.07448  1.0000
  H   H451      1.0  0.14589  0.55290  0.25584  1.0000
  H   H452      1.0  0.12984  0.56697  0.22272  1.0000
  H   H453      1.0  0.29283  0.93496  0.43445  1.0000
  H   H454      1.0  0.25979  0.64050  0.09185  1.0000
  S   S65       1.0  0.03573  0.51887  0.04425  1.0000
  H   H455      1.0  0.10812  0.51545  0.47285  1.0000
  C   C270      1.0  0.24470  0.91631  0.05470  1.0000
  H   H456      1.0  0.23367  0.66960  0.46336  1.0000
  H   H457      1.0  0.05596  0.95551  0.01784  1.0000
  H   H458      1.0  0.20841  0.95138  0.42809  1.0000
  H   H459      1.0  0.09182  0.58226  0.20706  1.0000
  H   H460      1.0  0.30385  0.74267  0.42633  1.0000
  H   H461      1.0  0.17439  0.92808  0.47408  1.0000
  H   H462      1.0  0.13798  0.59101  0.28912  1.0000
  H   H463      1.0  0.09264  0.57219  0.26487  1.0000
  H   H464      1.0  0.25777  0.81593  0.25318  1.0000
  C   C271      1.0  0.04441  0.98160  0.13340  1.0000
  N   N15       1.0  0.24558  0.70682  0.47484  1.0000
  N   N16       1.0  0.19130  0.67353  0.10758  1.0000
  C   C272      1.0  0.21883  0.67299  0.10063  1.0000
  C   C273      1.0  0.17885  0.69146  0.08466  1.0000
  C   C274      1.0  0.18795  0.68378  0.14112  1.0000
  C   C275      1.0  0.17943  0.64816  0.10600  1.0000
  C   C276      1.0  0.19030  0.62929  0.08159  1.0000
  C   C277      1.0  0.23515  0.65915  0.12572  1.0000
  C   C278      1.0  0.16073  0.68773  0.15243  1.0000
  C   C279      1.0  0.18095  0.68577  0.04831  1.0000
  C   C280      1.0  0.17108  0.70744  0.02819  1.0000
  C   C281      1.0  0.17462  0.60570  0.08041  1.0000
  C   C282      1.0  0.26103  0.65353  0.11242  1.0000
  C   C283      1.0  0.15988  0.69546  0.18775  1.0000
  H   H465      1.0  0.22621  0.69226  0.09890  1.0000
  H   H466      1.0  0.22265  0.66465  0.07685  1.0000
  H   H467      1.0  0.15854  0.69246  0.08927  1.0000
  H   H468      1.0  0.18625  0.71054  0.08877  1.0000
  H   H469      1.0  0.19765  0.70188  0.14345  1.0000
  H   H470      1.0  0.19665  0.67122  0.15920  1.0000
  H   H471      1.0  0.18076  0.63872  0.12974  1.0000
  H   H472      1.0  0.15910  0.64996  0.10125  1.0000
  H   H473      1.0  0.20939  0.62362  0.08874  1.0000
  H   H474      1.0  0.19132  0.63697  0.05702  1.0000
  H   H475      1.0  0.23759  0.67090  0.14737  1.0000
  H   H476      1.0  0.22648  0.64151  0.13348  1.0000
  H   H477      1.0  0.14972  0.67046  0.14976  1.0000
  H   H478      1.0  0.15156  0.70280  0.13859  1.0000
  H   H479      1.0  0.20040  0.68249  0.04073  1.0000
  H   H480      1.0  0.16946  0.66936  0.04225  1.0000
  H   H481      1.0  0.17219  0.70273  0.00225  1.0000
  H   H482      1.0  0.15135  0.71145  0.03416  1.0000
  H   H483      1.0  0.18241  0.72434  0.03247  1.0000
  H   H484      1.0  0.15525  0.60998  0.07279  1.0000
  H   H485      1.0  0.18278  0.59244  0.06295  1.0000
  H   H486      1.0  0.17430  0.59660  0.10439  1.0000
  C   C284      1.0  0.30899  0.73766  0.45140  1.0000
  H   H487      1.0  0.22483  0.75429  0.48851  1.0000
  H   H488      1.0  0.31562  0.70293  0.23298  1.0000
  H   H489      1.0  0.16764  0.68060  0.20337  1.0000
  H   H490      1.0  0.17061  0.71277  0.19160  1.0000
  H   H491      1.0  0.14030  0.69878  0.19501  1.0000
  H   H492      1.0  0.23470  0.74258  0.21788  1.0000
  Fe  Fe31      1.0  0.10437  0.50371  0.12725  1.0000
  H   H493      1.0  0.28707  0.90162  0.08872  1.0000
  C   C285      1.0  0.31625  0.58207  0.28288  1.0000
  S   S66       1.0  0.04000  0.97376  0.27939  1.0000
  H   H494      1.0  0.01558  0.54236  0.29705  1.0000
  H   H495      1.0  0.15465  0.89037  0.06698  1.0000
  H   H496      1.0  0.23986  0.77765  0.18080  1.0000
  C   C286      1.0  0.19770  0.73943  0.26448  1.0000
  H   H497      1.0  0.15573  0.59697  0.25331  1.0000
  H   H498      1.0  0.00058  0.89763  0.15113  1.0000
  H   H499      1.0  0.22905  0.75335  0.29067  1.0000
  H   H500      1.0  0.28454  0.89162  0.41789  1.0000
  C   C287      1.0  0.18602  0.74874  0.47898  1.0000
  H   H501      1.0  0.26775  0.76870  0.29283  1.0000
  H   H502      1.0  0.18837  0.75779  0.26290  1.0000
  H   H503      1.0  0.25975  0.73313  0.43996  1.0000
  H   H504      1.0  0.02626  0.92263  0.11488  1.0000
  H   H505      1.0  0.00567  0.50470  0.19114  1.0000
  H   H506      1.0  0.27204  0.92629  0.11092  1.0000
  C   C288      1.0  0.24865  0.68282  0.45670  1.0000
  H   H507      1.0  0.27420  0.73020  0.27086  1.0000
  H   H508      1.0  0.23035  0.93232  0.47543  1.0000
  H   H509      1.0  0.31418  0.75364  0.26647  1.0000
  C   C289      1.0  0.25485  0.78953  0.19079  1.0000
  H   H510      1.0  0.27380  0.72437  0.22905  1.0000
  H   H511      1.0  0.23290  0.79833  0.27142  1.0000
  H   H512      1.0  0.25361  0.81220  0.14763  1.0000
  H   H513      1.0  0.25253  0.80355  0.32504  1.0000
  C   C290      1.0  0.16766  0.88877  0.04643  1.0000
  H   H514      1.0  0.28893  0.78577  0.26946  1.0000
  C   C291      1.0  0.07584  0.56928  0.20676  1.0000
  H   H515      1.0  0.30143  0.93162  0.09140  1.0000
  H   H516      1.0  0.17423  0.86924  0.04498  1.0000
  H   H517      1.0  0.07008  0.52940  0.20340  1.0000
  C   C292      1.0  0.29794  0.91981  0.45111  1.0000
  Fe  Fe32      1.0  0.06258  0.98649  0.32352  1.0000
  C   C293      1.0  0.29198  0.71724  0.46403  1.0000
  H   H518      1.0  0.22882  0.69092  0.41158  1.0000
  C   C294      1.0  0.00207  0.49559  0.21380  1.0000
  C   C295      1.0  0.05048  0.54207  0.27084  1.0000
  H   H519      1.0  0.01296  0.89682  0.40436  1.0000
  H   H520      1.0  0.27663  0.78797  0.14665  1.0000
  H   H521      1.0  0.07172  0.96580  0.18748  1.0000
  H   H522      1.0  0.26281  0.90419  0.46758  1.0000
  H   H523      1.0  0.04722  0.94736  0.08361  1.0000
  H   H524      1.0  0.12335  0.60541  0.25439  1.0000
  H   H525      1.0  0.02698  0.96089  0.46019  1.0000
  C   C296      1.0  0.06248  0.57260  0.17457  1.0000
  C   C297      1.0  0.26938  0.77913  0.26980  1.0000
  H   H526      1.0  0.02100  0.95742  0.06187  1.0000
  Fe  Fe33      1.0  0.27953  0.84316  0.00343  1.0000
  H   H527      1.0  0.27026  0.67091  0.10457  1.0000
  H   H528      1.0  0.23387  0.72379  0.27143  1.0000
  C   C298      1.0  0.06805  0.96733  0.03312  1.0000
  H   H529      1.0  0.27272  0.64488  0.13145  1.0000
  C   C299      1.0  0.23735  0.75531  0.23870  1.0000
  C   C300      1.0  0.22579  0.74254  0.26841  1.0000
  H   H530      1.0  0.22563  0.77174  0.23326  1.0000
  H   H531      1.0  0.27929  0.75857  0.19337  1.0000
  C   C301      1.0  0.27353  0.77348  0.21042  1.0000
  C   C302      1.0  0.26762  0.80202  0.16231  1.0000
  H   H532      1.0  0.01179  0.95062  0.22920  1.0000
  H   H533      1.0  0.24607  0.80412  0.20555  1.0000
  H   H534      1.0  0.27212  0.65354  0.40983  1.0000
  H   H535      1.0  0.07498  0.56759  0.15441  1.0000
  C   C303      1.0  0.01549  0.91652  0.39730  1.0000
  H   H536      1.0  0.31592  0.54369  0.26850  1.0000
  N   N17       1.0  0.02518  0.97547  0.10799  1.0000
  C   C304      1.0  0.25301  0.80266  0.27251  1.0000
  N   N18       1.0  0.26445  0.76219  0.24162  1.0000
  C   C305      1.0  0.27900  0.73853  0.24729  1.0000
  Fe  Fe34      1.0  0.22731  0.84805  0.47461  1.0000
  C   C306      1.0  0.20522  0.95721  0.99687  1.0000
  C   C307      1.0  0.01388  0.97276  0.47250  1.0000
  C   C308      1.0  0.32499  0.55743  0.28337  1.0000
  C   C309      1.0  0.26439  0.72587  0.46428  1.0000
  C   C310      1.0  0.10553  0.55621  0.26301  1.0000
  S   S67       1.0  0.20375  0.88359  0.47325  1.0000
  H   H537      1.0  0.04555  0.56086  0.17357  1.0000
  H   H538      1.0  0.03557  0.98167  0.15763  1.0000
  S   S68       1.0  0.28799  0.80204  0.00538  1.0000
  H   H539      1.0  0.10923  0.55065  0.28840  1.0000
  H   H540      1.0  0.06327  0.94483  0.13513  1.0000
  H   H541      1.0  0.28187  0.81539  0.17079  1.0000
  H   H542      1.0  0.02651  0.93499  0.15540  1.0000
  C   C311      1.0  0.22215  0.94844  0.02486  1.0000
  C   C312      1.0  0.27818  0.91563  0.47781  1.0000
  Fe  Fe35      1.0  0.05803  0.49896  0.08376  1.0000
  S   S69       1.0  0.21775  0.80741  0.46965  1.0000
  H   H543      1.0  0.18200  0.92538  0.05302  1.0000
  H   H544      1.0  0.24874  0.89603  0.05652  1.0000
  H   H545      1.0  0.29054  0.78475  0.21472  1.0000
  C   C313      1.0  0.01562  0.98536  0.25429  1.0000
  S   S70       1.0  0.30531  0.87714  0.00557  1.0000
  C   C314      1.0  0.07269  0.52451  0.26424  1.0000
  N   N19       1.0  0.23027  0.92166  0.02416  1.0000
  H   H546      1.0  0.06420  0.50834  0.25178  1.0000
  H   H547      1.0  0.02425  0.92650  0.41774  1.0000
  C   C315      1.0  0.30781  0.74106  0.24708  1.0000
  H   H548      1.0  0.09983  0.95818  0.16622  1.0000
  H   H549      1.0  0.32167  0.61865  0.30214  1.0000
  H   H550      1.0  0.99951  0.93998  0.99471  1.0000
  C   C316      1.0  0.32552  0.88957  0.03550  1.0000
  H   H551      1.0  0.23862  0.96084  0.02437  1.0000
  H   H552      1.0  0.21687  0.98219  0.44137  1.0000
  C   C317      1.0  0.01135  0.50897  0.48675  1.0000
  H   H553      1.0  0.18689  0.75591  0.45397  1.0000
  H   H554      1.0  0.19750  0.90619  0.00069  1.0000
  H   H555      1.0  0.26687  0.95047  0.06050  1.0000
  C   C318      1.0  0.00137  0.95986  0.99226  1.0000
  H   H556      1.0  0.31672  0.89994  0.41289  1.0000
  H   H557      1.0  0.07804  0.98051  0.01723  1.0000
  H   H558      1.0  0.30783  0.88078  0.44626  1.0000
  H   H559      1.0  0.09547  0.50538  0.00266  1.0000
  H   H560      1.0  0.26358  0.74241  0.48014  1.0000
  H   H561      1.0  0.31455  0.74831  0.22373  1.0000
  H   H562      1.0  0.18881  0.94509  0.99361  1.0000
  C   C319      1.0  0.00505  0.96948  0.23115  1.0000
  H   H563      1.0  0.26066  0.90167  0.00211  1.0000
  H   H564      1.0  0.31481  0.70801  0.27606  1.0000
  S   S71       1.0  0.10461  0.98677  0.32384  1.0000
  H   H565      1.0  0.18378  0.98398  0.02474  1.0000
  H   H566      1.0  0.22576  0.97146  0.40204  1.0000
  C   C320      1.0  0.19548  0.98346  0.00281  1.0000
  H   H567      1.0  0.26181  0.97014  0.43842  1.0000
  H   H568      1.0  0.02597  0.51198  0.28538  1.0000
  H   H569      1.0  0.04102  0.52782  0.31837  1.0000
  C   C321      1.0  0.03222  0.53029  0.29438  1.0000
  Fe  Fe36      1.0  0.22389  0.63961  0.73002  1.0000
  S   S72       1.0  0.25876  0.63939  0.70050  1.0000
  S   S73       1.0  0.19258  0.61080  0.72998  1.0000
  Fe  Fe37      1.0  0.24372  0.68120  0.77430  1.0000
  S   S74       1.0  0.28000  0.68346  0.74767  1.0000
  S   S75       1.0  0.23121  0.70022  0.82085  1.0000
  Fe  Fe38      1.0  0.25671  0.68124  0.70235  1.0000
  S   S76       1.0  0.27127  0.70295  0.65862  1.0000
  Fe  Fe39      1.0  0.27957  0.64163  0.74745  1.0000
  H   H570      1.0  0.05803  0.95740  0.63329  1.0000
  S   S77       1.0  0.22011  0.68144  0.72912  1.0000
  S   S78       1.0  0.24501  0.63956  0.77695  1.0000
  H   H571      1.0  0.20919  0.54497  0.70279  1.0000
  S   S79       1.0  0.25957  0.84063  0.95563  1.0000
  H   H572      1.0  0.06185  0.62893  0.77478  1.0000
  Fe  Fe40      1.0  0.23950  0.80181  0.51589  1.0000
  H   H573      1.0  0.05740  0.51931  0.75240  1.0000
  S   S80       1.0  0.22333  0.77862  0.55695  1.0000
  Fe  Fe41      1.0  0.06280  0.49874  0.58496  1.0000
  C   C322      1.0  0.32220  0.56907  0.82706  1.0000
  Fe  Fe42      1.0  0.26571  0.79938  0.95916  1.0000
  S   S81       1.0  0.28090  0.78024  0.91412  1.0000
  S   S82       1.0  0.24619  0.84264  0.52278  1.0000
  H   H574      1.0  0.29561  0.62793  0.86972  1.0000
  C   C323      1.0  0.10304  0.50197  0.49190  1.0000
  S   S83       1.0  0.03703  0.96275  0.79254  1.0000
  Fe  Fe43      1.0  0.10815  0.95654  0.87343  1.0000
  S   S84       1.0  0.13997  0.92808  0.87547  1.0000
  S   S85       1.0  0.06617  0.95455  0.87605  1.0000
  H   H575      1.0  0.06862  0.58377  0.76992  1.0000
  Fe  Fe44      1.0  0.10972  0.51479  0.62335  1.0000
  S   S86       1.0  0.14115  0.54353  0.62191  1.0000
  H   H576      1.0  0.01672  0.53919  0.64924  1.0000
  H   H577      1.0  0.06595  0.50859  0.98252  1.0000
  S   S87       1.0  0.06870  0.52246  0.62930  1.0000
  C   C324      1.0  0.32515  0.54819  0.93158  1.0000
  C   C325      1.0  0.01857  0.96955  0.97004  1.0000
  C   C326      1.0  0.30899  0.95478  0.51777  1.0000
  H   H578      1.0  0.01291  0.58138  0.69866  1.0000
  H   H579      1.0  0.01102  0.56829  0.75305  1.0000
  C   C327      1.0  0.00208  0.49732  0.71014  1.0000
  S   S88       1.0  0.03921  0.51256  0.54225  1.0000
  H   H580      1.0  0.23175  0.92128  0.58205  1.0000
  C   C328      1.0  0.21594  0.51943  0.66470  1.0000
  H   H581      1.0  0.26965  0.80445  0.58456  1.0000
  H   H582      1.0  0.20962  0.73294  0.51508  1.0000
  C   C329      1.0  0.17411  0.87397  0.94946  1.0000
  C   C330      1.0  0.14983  0.88316  0.95380  1.0000
  C   C331      1.0  0.13940  0.90057  0.93225  1.0000
  C   C332      1.0  0.15304  0.90866  0.90571  1.0000
  C   C333      1.0  0.17740  0.89961  0.90153  1.0000
  C   C334      1.0  0.18792  0.88244  0.92330  1.0000
  H   H583      1.0  0.00041  0.94369  0.50365  1.0000
  H   H584      1.0  0.12054  0.90710  0.93554  1.0000
  H   H585      1.0  0.18804  0.90561  0.88094  1.0000
  H   H586      1.0  0.20647  0.87537  0.91941  1.0000
  H   H587      1.0  0.32022  0.84279  0.60600  1.0000
  C   C335      1.0  0.31093  0.88629  0.55680  1.0000
  H   H588      1.0  0.25370  0.89622  0.57585  1.0000
  H   H589      1.0  0.29308  0.87737  0.55935  1.0000
  H   H590      1.0  0.22918  0.88891  0.96661  1.0000
  C   C336      1.0  0.17895  0.59210  0.69941  1.0000
  C   C337      1.0  0.18587  0.59385  0.66712  1.0000
  C   C338      1.0  0.17418  0.57879  0.64380  1.0000
  C   C339      1.0  0.15552  0.56177  0.65241  1.0000
  C   C340      1.0  0.14899  0.55970  0.68476  1.0000
  C   C341      1.0  0.16056  0.57481  0.70808  1.0000
  H   H591      1.0  0.19997  0.60701  0.66004  1.0000
  H   H592      1.0  0.17945  0.58051  0.61884  1.0000
  H   H593      1.0  0.13499  0.54647  0.69164  1.0000
  H   H594      1.0  0.15516  0.57317  0.73299  1.0000
  H   H595      1.0  0.30007  0.70969  0.90279  1.0000
  H   H596      1.0  0.02357  0.91902  0.85814  1.0000
  S   S89       1.0  0.31551  0.61904  0.75324  1.0000
  H   H597      1.0  0.30229  0.81340  0.54973  1.0000
  H   H598      1.0  0.05728  0.56141  0.68954  1.0000
  C   C342      1.0  0.24559  0.72228  0.84654  1.0000
  C   C343      1.0  0.26733  0.73474  0.83795  1.0000
  C   C344      1.0  0.27768  0.75257  0.85881  1.0000
  C   C345      1.0  0.26656  0.75807  0.88854  1.0000
  C   C346      1.0  0.24483  0.74559  0.89716  1.0000
  C   C347      1.0  0.23440  0.72784  0.87621  1.0000
  H   H599      1.0  0.27598  0.73087  0.81506  1.0000
  H   H600      1.0  0.29439  0.76227  0.85181  1.0000
  H   H601      1.0  0.23616  0.74948  0.92003  1.0000
  H   H602      1.0  0.21754  0.71833  0.88305  1.0000
  C   C348      1.0  0.25737  0.72384  0.63059  1.0000
  C   C349      1.0  0.23308  0.73275  0.63406  1.0000
  C   C350      1.0  0.22306  0.74954  0.61135  1.0000
  C   C351      1.0  0.23712  0.75767  0.58492  1.0000
  C   C352      1.0  0.26136  0.74867  0.58131  1.0000
  C   C353      1.0  0.27144  0.73194  0.60407  1.0000
  H   H603      1.0  0.22199  0.72669  0.65421  1.0000
  H   H604      1.0  0.20420  0.75623  0.61426  1.0000
  H   H605      1.0  0.27221  0.75438  0.56078  1.0000
  H   H606      1.0  0.29020  0.72507  0.60105  1.0000
  C   C354      1.0  0.00607  0.96107  0.62190  1.0000
  N   N20       1.0  0.02680  0.97936  0.61630  1.0000
  C   C355      1.0  0.29479  0.66826  0.86326  1.0000
  H   H607      1.0  0.00189  0.55040  0.70343  1.0000
  H   H608      1.0  0.18512  0.98957  0.77909  1.0000
  H   H609      1.0  0.07708  0.63065  0.73607  1.0000
  H   H610      1.0  0.27962  0.83554  0.58878  1.0000
  H   H611      1.0  0.21937  0.91979  0.95678  1.0000
  C   C356      1.0  0.28540  0.64191  0.85522  1.0000
  C   C357      1.0  0.25790  0.63918  0.86367  1.0000
  C   C358      1.0  0.25365  0.82235  0.62516  1.0000
  C   C359      1.0  0.31952  0.50471  0.90942  1.0000
  H   H612      1.0  0.30369  0.95715  0.54339  1.0000
  H   H613      1.0  0.08577  0.52933  0.70499  1.0000
  H   H614      1.0  0.28430  0.49868  0.73247  1.0000
  H   H615      1.0  0.02537  0.90870  0.89930  1.0000
  H   H616      1.0  0.28213  0.68183  0.85117  1.0000
  H   H617      1.0  0.27649  0.92480  0.54137  1.0000
  H   H618      1.0  0.32023  0.56096  0.95149  1.0000
  H   H619      1.0  0.24934  0.71961  0.52397  1.0000
  H   H620      1.0  0.32660  0.74713  0.89236  1.0000
  C   C360      1.0  0.26026  0.93230  0.52787  1.0000
  C   C361      1.0  0.32633  0.59553  0.77993  1.0000
  H   H621      1.0  0.03308  0.99257  0.68289  1.0000
  H   H622      1.0  0.27094  0.89736  0.94266  1.0000
  Fe  Fe45      1.0  0.22467  0.83442  0.98361  1.0000
  H   H623      1.0  0.25434  0.94936  0.54094  1.0000
  H   H624      1.0  0.28741  0.63771  0.82931  1.0000
  H   H625      1.0  0.09199  0.49427  0.96206  1.0000
  H   H626      1.0  0.25166  0.62009  0.85803  1.0000
  H   H627      1.0  0.25484  0.64265  0.88967  1.0000
  H   H628      1.0  0.24637  0.65239  0.84951  1.0000
  C   C362      1.0  0.02885  0.55763  0.79719  1.0000
  H   H629      1.0  0.99725  0.89689  0.62815  1.0000
  C   C363      1.0  0.32450  0.67215  0.81889  1.0000
  C   C364      1.0  0.30615  0.84887  0.65303  1.0000
  C   C365      1.0  0.28888  0.56652  0.69008  1.0000
  C   C366      1.0  0.05882  0.62904  0.74835  1.0000
  H   H630      1.0  0.31236  0.50397  0.78064  1.0000
  H   H631      1.0  0.04228  0.60715  0.71139  1.0000
  S   S90       1.0  0.31919  0.85441  0.50538  1.0000
  N   N21       1.0  0.18996  0.80641  0.86849  1.0000
  C   C367      1.0  0.19651  0.78395  0.84860  1.0000
  C   C368      1.0  0.18978  0.79887  0.90348  1.0000
  C   C369      1.0  0.16486  0.81598  0.85781  1.0000
  C   C370      1.0  0.20884  0.82677  0.86422  1.0000
  C   C371      1.0  0.23635  0.81924  0.87008  1.0000
  C   C372      1.0  0.19994  0.78851  0.81204  1.0000
  C   C373      1.0  0.15463  0.83846  0.87694  1.0000
  C   C374      1.0  0.16787  0.78210  0.91407  1.0000
  H   H632      1.0  0.02991  0.95717  0.95580  1.0000
  C   C375      1.0  0.25366  0.84141  0.86594  1.0000
  C   C376      1.0  0.20906  0.76506  0.79514  1.0000
  C   C377      1.0  0.12775  0.84431  0.86761  1.0000
  H   H633      1.0  0.18186  0.76956  0.85078  1.0000
  H   H634      1.0  0.21367  0.77490  0.85797  1.0000
  H   H635      1.0  0.20720  0.78869  0.90968  1.0000
  H   H636      1.0  0.18992  0.81546  0.91944  1.0000
  H   H637      1.0  0.15084  0.80084  0.85804  1.0000
  H   H638      1.0  0.16559  0.82226  0.83237  1.0000
  H   H639      1.0  0.20725  0.83530  0.83994  1.0000
  H   H640      1.0  0.20492  0.84218  0.88118  1.0000
  H   H641      1.0  0.24249  0.80470  0.85302  1.0000
  H   H642      1.0  0.23891  0.81219  0.89489  1.0000
  H   H643      1.0  0.18200  0.79388  0.80069  1.0000
  H   H644      1.0  0.21376  0.80324  0.80725  1.0000
  H   H645      1.0  0.16578  0.85516  0.87138  1.0000
  H   H646      1.0  0.15518  0.83530  0.90325  1.0000
  H   H647      1.0  0.14985  0.79201  0.91172  1.0000
  H   H648      1.0  0.16703  0.76495  0.89947  1.0000
  C   C378      1.0  0.01263  0.91593  0.88039  1.0000
  H   H649      1.0  0.26060  0.92830  0.93205  1.0000
  C   C379      1.0  0.01683  0.56183  0.69262  1.0000
  H   H650      1.0  0.25269  0.84857  0.84094  1.0000
  H   H651      1.0  0.24866  0.85647  0.88295  1.0000
  H   H652      1.0  0.27311  0.83553  0.87109  1.0000
  H   H653      1.0  0.19648  0.74918  0.79997  1.0000
  H   H654      1.0  0.20967  0.76819  0.76878  1.0000
  H   H655      1.0  0.22811  0.76023  0.80342  1.0000
  H   H656      1.0  0.12627  0.84837  0.84149  1.0000
  H   H657      1.0  0.11540  0.82855  0.87375  1.0000
  H   H658      1.0  0.12133  0.86095  0.88101  1.0000
  N   N22       1.0  0.25836  0.54814  0.73201  1.0000
  C   C380      1.0  0.24718  0.52973  0.70876  1.0000
  C   C381      1.0  0.00384  0.55541  0.81436  1.0000
  C   C382      1.0  0.23783  0.55629  0.75445  1.0000
  C   C383      1.0  0.26805  0.57089  0.71505  1.0000
  H   H659      1.0  0.00657  0.55748  0.84068  1.0000
  C   C384      1.0  0.22525  0.53944  0.68774  1.0000
  C   C385      1.0  0.24601  0.57098  0.78478  1.0000
  C   C386      1.0  0.17059  0.77439  0.94924  1.0000
  C   C387      1.0  0.04533  0.60551  0.73769  1.0000
  C   C388      1.0  0.01606  0.97664  0.76434  1.0000
  C   C389      1.0  0.22353  0.57846  0.80497  1.0000
  H   H660      1.0  0.27674  0.97667  0.50492  1.0000
  H   H661      1.0  0.15430  0.76314  0.95653  1.0000
  H   H662      1.0  0.29320  0.52525  0.93959  1.0000
  H   H663      1.0  0.30108  0.83896  0.67539  1.0000
  H   H664      1.0  0.22710  0.53991  0.76302  1.0000
  H   H665      1.0  0.22420  0.56832  0.74157  1.0000
  H   H666      1.0  0.25256  0.58129  0.70334  1.0000
  H   H667      1.0  0.27589  0.58423  0.73268  1.0000
  H   H668      1.0  0.28396  0.55177  0.67275  1.0000
  H   H669      1.0  0.02766  0.92906  0.64048  1.0000
  H   H670      1.0  0.29394  0.59466  0.81002  1.0000
  H   H671      1.0  0.23097  0.55556  0.67298  1.0000
  H   H672      1.0  0.25604  0.58803  0.77795  1.0000
  H   H673      1.0  0.25842  0.55985  0.80055  1.0000
  C   C390      1.0  0.23929  0.91294  0.53175  1.0000
  H   H674      1.0  0.23973  0.85559  0.60130  1.0000
  H   H675      1.0  0.07779  0.58375  0.72928  1.0000
  H   H676      1.0  0.18387  0.98948  0.98204  1.0000
  S   S91       1.0  0.10727  0.97563  0.82516  1.0000
  C   C391      1.0  0.29415  0.58986  0.67048  1.0000
  C   C392      1.0  0.25445  0.90899  0.93664  1.0000
  C   C393      1.0  0.27865  0.53601  0.75196  1.0000
  S   S92       1.0  0.10393  0.49388  0.57692  1.0000
  H   H677      1.0  0.21306  0.56183  0.81285  1.0000
  H   H678      1.0  0.22983  0.58870  0.82661  1.0000
  H   H679      1.0  0.21089  0.59078  0.79103  1.0000
  H   H680      1.0  0.22616  0.82697  0.58696  1.0000
  H   H681      1.0  0.11343  0.51760  0.76805  1.0000
  H   H682      1.0  0.30174  0.52174  0.71157  1.0000
  C   C394      1.0  0.31720  0.78007  0.66325  1.0000
  H   H683      1.0  0.03682  0.57598  0.80328  1.0000
  H   H684      1.0  0.18039  0.76420  0.49504  1.0000
  H   H685      1.0  0.13881  0.87647  0.97368  1.0000
  C   C395      1.0  0.23355  0.68358  0.56251  1.0000
  C   C396      1.0  0.31798  0.51003  0.75621  1.0000
  H   H686      1.0  0.02719  0.60513  0.75019  1.0000
  H   H687      1.0  0.02916  0.57009  0.64382  1.0000
  H   H688      1.0  0.04444  0.95758  0.57905  1.0000
  H   H689      1.0  0.02139  0.92786  0.59799  1.0000
  H   H690      1.0  0.23094  0.51360  0.64803  1.0000
  C   C397      1.0  0.32641  0.70055  0.86433  1.0000
  N   N23       1.0  0.26763  0.93857  0.49378  1.0000
  H   H691      1.0  0.09660  0.49546  0.74361  1.0000
  H   H692      1.0  0.28725  0.90321  0.49580  1.0000
  S   S93       1.0  0.22931  0.79290  0.98406  1.0000
  H   H693      1.0  0.26810  0.69374  0.51466  1.0000
  C   C398      1.0  0.29466  0.79268  0.64650  1.0000
  C   C399      1.0  0.24938  0.70190  0.51022  1.0000
  H   H694      1.0  0.22095  0.66952  0.57312  1.0000
  H   H695      1.0  0.25297  0.67896  0.56959  1.0000
  H   H696      1.0  0.22851  0.70196  0.57260  1.0000
  C   C400      1.0  0.23296  0.83700  0.60850  1.0000
  C   C401      1.0  0.01365  0.93325  0.62162  1.0000
  H   H697      1.0  0.32202  0.65287  0.81027  1.0000
  H   H698      1.0  0.31620  0.93565  0.51485  1.0000
  C   C402      1.0  0.32049  0.70751  0.89970  1.0000
  H   H699      1.0  0.10190  0.55125  0.73008  1.0000
  H   H700      1.0  0.18765  0.76300  0.95270  1.0000
  H   H701      1.0  0.00364  0.50165  0.68486  1.0000
  H   H702      1.0  0.20021  0.52688  0.65015  1.0000
  H   H703      1.0  0.21106  0.68897  0.52058  1.0000
  H   H704      1.0  0.22109  0.92075  0.52402  1.0000
  H   H705      1.0  0.01714  0.53626  0.75600  1.0000
  H   H706      1.0  0.29524  0.75088  0.68575  1.0000
  Fe  Fe46      1.0  0.06540  0.97669  0.82988  1.0000
  H   H707      1.0  0.31736  0.88159  0.67977  1.0000
  H   H708      1.0  0.26129  0.52232  0.69197  1.0000
  H   H709      1.0  0.07310  0.95201  0.69039  1.0000
  H   H710      1.0  0.28445  0.80280  0.66550  1.0000
  H   H711      1.0  0.30032  0.77783  0.71085  1.0000
  H   H712      1.0  0.04107  0.54284  0.80707  1.0000
  C   C403      1.0  0.02556  0.55479  0.76035  1.0000
  H   H713      1.0  0.31554  0.71346  0.84870  1.0000
  H   H714      1.0  0.31816  0.55620  0.90864  1.0000
  H   H715      1.0  0.24581  0.90165  0.91433  1.0000
  H   H716      1.0  0.04741  0.64556  0.74205  1.0000
  H   H717      1.0  0.30856  0.51242  0.88892  1.0000
  H   H718      1.0  0.28969  0.85885  0.64332  1.0000
  H   H719      1.0  0.01578  0.95325  0.89796  1.0000
  C   C404      1.0  0.30890  0.76537  0.69275  1.0000
  N   N24       1.0  0.30034  0.80930  0.61820  1.0000
  H   H720      1.0  0.17153  0.79101  0.96501  1.0000
  H   H721      1.0  0.12349  0.51085  0.72769  1.0000
  H   H722      1.0  0.24341  0.89621  0.51734  1.0000
  H   H723      1.0  0.22100  0.89139  0.56860  1.0000
  H   H724      1.0  0.24035  0.51324  0.72224  1.0000
  C   C405      1.0  0.23636  0.90504  0.56680  1.0000
  H   H725      1.0  0.32057  0.51591  0.96099  1.0000
  H   H726      1.0  0.28185  0.77758  0.63870  1.0000
  C   C406      1.0  0.23556  0.90836  0.96398  1.0000
  S   S94       1.0  0.27603  0.79565  0.49131  1.0000
  H   H727      1.0  0.25865  0.83250  0.64731  1.0000
  Fe  Fe47      1.0  0.28124  0.83704  0.49499  1.0000
  C   C407      1.0  0.06689  0.53759  0.75111  1.0000
  H   H728      1.0  0.05907  0.96992  0.72199  1.0000
  H   H729      1.0  0.07372  0.54138  0.77587  1.0000
  H   H730      1.0  0.21706  0.83941  0.62517  1.0000
  H   H731      1.0  0.30453  0.77627  0.58935  1.0000
  H   H732      1.0  0.29109  0.55047  0.76236  1.0000
  H   H733      1.0  0.30535  0.91142  0.59655  1.0000
  H   H734      1.0  0.23384  0.66464  0.51723  1.0000
  C   C408      1.0  0.31799  0.90553  0.57787  1.0000
  H   H735      1.0  0.20913  0.50305  0.67824  1.0000
  C   C409      1.0  0.32706  0.87859  0.53249  1.0000
  H   H736      1.0  0.24581  0.80412  0.63240  1.0000
  H   H737      1.0  0.27042  0.52610  0.77289  1.0000
  H   H738      1.0  0.04316  0.53284  0.69967  1.0000
  C   C410      1.0  0.23060  0.68382  0.52596  1.0000
  H   H739      1.0  0.31134  0.56298  0.84738  1.0000
  C   C411      1.0  0.04271  0.55305  0.70511  1.0000
  C   C412      1.0  0.06119  0.58221  0.74500  1.0000
  H   H740      1.0  0.32728  0.69309  0.91664  1.0000
  C   C413      1.0  0.27634  0.81817  0.60265  1.0000
  N   N25       1.0  0.04875  0.55744  0.74025  1.0000
  C   C414      1.0  0.01469  0.55897  0.65617  1.0000
  C   C415      1.0  0.29514  0.51605  0.73555  1.0000
  N   N26       1.0  0.32149  0.67393  0.85486  1.0000
  C   C416      1.0  0.09054  0.53415  0.73019  1.0000
  H   H741      1.0  0.27721  0.59599  0.65728  1.0000
  H   H742      1.0  0.29161  0.67044  0.88947  1.0000
  H   H743      1.0  0.11983  0.49821  0.50679  1.0000
  C   C417      1.0  0.31366  0.52270  0.93754  1.0000
  H   H744      1.0  0.30942  0.68279  0.80662  1.0000
  H   H745      1.0  0.32640  0.73746  0.93369  1.0000
  C   C418      1.0  0.06444  0.97017  0.69624  1.0000
  C   C419      1.0  0.01802  0.49734  0.51587  1.0000
  H   H746      1.0  0.30899  0.58596  0.65270  1.0000
  C   C420      1.0  0.31656  0.83097  0.62739  1.0000
  H   H747      1.0  0.99812  0.90179  0.87556  1.0000
  H   H748      1.0  0.02795  0.95968  0.68088  1.0000
  H   H749      1.0  0.30072  0.60503  0.68637  1.0000
  H   H750      1.0  0.06585  0.97372  0.52839  1.0000
  C   C421      1.0  0.10696  0.51325  0.74333  1.0000
  C   C422      1.0  0.31450  0.79395  0.59399  1.0000
  H   H751      1.0  0.30645  0.56161  0.70271  1.0000
  C   C423      1.0  0.31224  0.58703  0.80587  1.0000
  C   C424      1.0  0.00139  0.96115  0.74473  1.0000
  C   C425      1.0  0.31962  0.80644  0.56106  1.0000
  C   C426      1.0  0.99882  0.96308  0.49729  1.0000
  H   H752      1.0  0.99641  0.96500  0.64500  1.0000
  H   H753      1.0  0.01806  0.53438  0.98202  1.0000
  C   C427      1.0  0.08246  0.49635  0.98553  1.0000
  H   H754      1.0  0.00315  0.94124  0.74708  1.0000
  S   S95       1.0  0.18587  0.85134  0.97672  1.0000
  C   C428      1.0  0.04818  0.97500  0.63918  1.0000
  H   H755      1.0  0.31924  0.77208  0.53336  1.0000
  C   C429      1.0  0.28606  0.95961  0.49572  1.0000
  C   C430      1.0  0.00075  0.94015  0.89176  1.0000
  H   H756      1.0  0.02016  0.97673  0.56499  1.0000
  C   C431      1.0  0.03601  0.97623  0.58234  1.0000
  C   C432      1.0  0.04138  0.97463  0.67541  1.0000
  H   H757      1.0  0.08842  0.51053  0.50711  1.0000
  H   H758      1.0  0.21603  0.95780  0.97424  1.0000
  H   H759      1.0  0.99542  0.53694  0.80980  1.0000
  H   H760      1.0  0.32639  0.76665  0.64691  1.0000
  H   H761      1.0  0.32521  0.75602  0.70395  1.0000
  Fe  Fe48      1.0  0.06762  0.99182  0.90036  1.0000
  H   H762      1.0  0.07824  0.98519  0.69270  1.0000
  H   H763      1.0  0.99611  0.56551  0.64797  1.0000
  C   C433      1.0  0.32539  0.86857  0.66192  1.0000
  H   H764      1.0  0.32387  0.49299  0.84639  1.0000
  H   H765      1.0  0.23967  0.49391  0.54239  1.0000
  H   H766      1.0  0.07403  0.99099  0.58377  1.0000
  H   H767      1.0  0.06243  0.98974  0.63622  1.0000
  S   S96       1.0  0.10951  0.99217  0.90125  1.0000
  C   C434      1.0  0.21139  0.73881  0.48963  1.0000
  H   H768      1.0  0.23571  0.96291  0.48991  1.0000
  H   H769      1.0  0.99451  0.95208  0.84293  1.0000
  H   H770      1.0  0.32380  0.99228  0.51430  1.0000
  H   H771      1.0  0.00676  0.99255  0.88938  1.0000
  C   C435      1.0  0.00850  0.51735  0.98790  1.0000
  H   H772      1.0  0.62628  0.43752  0.33911  1.0000
  H   H773      1.0  0.60642  0.41227  0.32731  1.0000
  Fe  Fe49      1.0  0.60962  0.01334  0.38338  1.0000
  S   S97       1.0  0.64560  0.03622  0.38624  1.0000
  H   H774      1.0  0.33765  0.19945  0.10866  1.0000
  S   S98       1.0  0.56900  0.02282  0.39042  1.0000
  S   S99       1.0  0.43536  0.02167  0.13584  1.0000
  C   C436      1.0  0.65159  0.42787  0.18499  1.0000
  H   H775      1.0  0.50295  0.00912  0.36197  1.0000
  H   H776      1.0  0.63103  0.16340  0.32570  1.0000
  Fe  Fe50      1.0  0.39372  0.01520  0.13460  1.0000
  S   S100      1.0  0.36003  0.04173  0.13691  1.0000
  H   H777      1.0  0.57073  0.44649  0.20602  1.0000
  S   S101      1.0  0.43729  0.45998  0.37014  1.0000
  C   C437      1.0  0.65240  0.40819  0.08180  1.0000
  S   S102      1.0  0.45516  0.46944  0.27802  1.0000
  Fe  Fe51      1.0  0.39592  0.46792  0.37326  1.0000
  S   S103      1.0  0.36187  0.44253  0.37744  1.0000
  C   C438      1.0  0.36128  0.11600  0.09863  1.0000
  S   S104      1.0  0.55170  0.46469  0.13162  1.0000
  Fe  Fe52      1.0  0.59297  0.45846  0.13800  1.0000
  S   S105      1.0  0.60514  0.42033  0.15666  1.0000
  C   C439      1.0  0.49170  0.01127  0.38422  1.0000
  C   C440      1.0  0.66002  0.37701  0.19531  1.0000
  C   C441      1.0  0.35217  0.41900  0.40444  1.0000
  C   C442      1.0  0.36727  0.41032  0.42948  1.0000
  H   H778      1.0  0.34595  0.20761  0.15923  1.0000
  C   C443      1.0  0.33865  0.15156  0.12606  1.0000
  H   H779      1.0  0.38563  0.41807  0.43289  1.0000
  H   H780      1.0  0.35018  0.02108  0.20704  1.0000
  C   C444      1.0  0.34118  0.19142  0.17441  1.0000
  C   C445      1.0  0.32840  0.40857  0.40024  1.0000
  C   C446      1.0  0.45747  0.99460  0.41622  1.0000
  C   C447      1.0  0.58903  0.44885  0.32497  1.0000
  C   C448      1.0  0.49196  0.47026  0.46846  1.0000
  C   C449      1.0  0.35869  0.39133  0.44994  1.0000
  H   H781      1.0  0.35898  0.09992  0.08222  1.0000
  H   H782      1.0  0.36033  0.36701  0.37691  1.0000
  C   C450      1.0  0.48758  0.47148  0.22717  1.0000
  H   H783      1.0  0.51306  0.47227  0.18707  1.0000
  H   H784      1.0  0.48222  0.45241  0.22310  1.0000
  N   N27       1.0  0.46461  0.48018  0.10435  1.0000
  C   C451      1.0  0.63331  0.41091  0.17577  1.0000
  H   H785      1.0  0.65296  0.16715  0.43922  1.0000
  H   H786      1.0  0.61308  0.10804  0.05504  1.0000
  C   C452      1.0  0.45982  0.00765  0.32444  1.0000
  S   S106      1.0  0.54034  0.46666  0.03706  1.0000
  H   H787      1.0  0.53734  0.06013  0.02317  1.0000
  C   C453      1.0  0.34986  0.06592  0.16285  1.0000
  C   C454      1.0  0.65212  0.08951  0.45596  1.0000
  C   C455      1.0  0.36433  0.07472  0.18838  1.0000
  H   H788      1.0  0.43557  0.44142  0.02684  1.0000
  H   H789      1.0  0.38250  0.06673  0.19282  1.0000
  H   H790      1.0  0.63720  0.19414  0.34029  1.0000
  Fe  Fe53      1.0  0.56024  0.48021  0.08259  1.0000
  C   C456      1.0  0.64249  0.07021  0.43672  1.0000
  H   H791      1.0  0.43867  0.45357  0.08394  1.0000
  H   H792      1.0  0.62363  0.06386  0.44018  1.0000
  H   H793      1.0  0.33419  0.48094  0.43016  1.0000
  C   C457      1.0  0.51801  0.47956  0.00999  1.0000
  H   H794      1.0  0.52231  0.04858  0.41031  1.0000
  H   H795      1.0  0.63164  0.15301  0.37936  1.0000
  H   H796      1.0  0.56580  0.47991  0.28378  1.0000
  H   H797      1.0  0.43041  0.44693  0.13392  1.0000
  H   H798      1.0  0.62343  0.37220  0.17461  1.0000
  H   H799      1.0  0.47690  0.04277  0.41227  1.0000
  H   H800      1.0  0.62203  0.10143  0.38960  1.0000
  H   H801      1.0  0.46695  0.48727  0.15561  1.0000
  H   H802      1.0  0.52139  0.42691  0.08598  1.0000
  H   H803      1.0  0.50458  0.45304  0.29453  1.0000
  C   C458      1.0  0.65712  0.05957  0.41266  1.0000
  C   C459      1.0  0.33949  0.00762  0.22172  1.0000
  Fe  Fe54      1.0  0.43692  0.99874  0.09024  1.0000
  H   H804      1.0  0.64050  0.09779  0.47423  1.0000
  H   H805      1.0  0.50103  0.46971  0.08625  1.0000
  H   H806      1.0  0.50447  0.00552  0.40399  1.0000
  H   H807      1.0  0.62860  0.19405  0.28217  1.0000
  C   C460      1.0  0.43931  0.01769  0.30244  1.0000
  H   H808      1.0  0.47724  0.43345  0.06991  1.0000
  H   H809      1.0  0.59527  0.45179  0.29987  1.0000
  H   H810      1.0  0.58739  0.46647  0.23315  1.0000
  H   H811      1.0  0.57312  0.99272  0.27214  1.0000
  S   S107      1.0  0.60083  0.47076  0.08763  1.0000
  H   H812      1.0  0.35252  0.45881  0.45282  1.0000
  C   C461      1.0  0.54959  0.46729  0.28093  1.0000
  C   C462      1.0  0.33490  0.38099  0.44581  1.0000
  N   N28       1.0  0.56996  0.04350  0.00120  1.0000
  H   H813      1.0  0.51871  0.42241  0.35512  1.0000
  H   H814      1.0  0.41523  0.46831  0.02546  1.0000
  H   H815      1.0  0.56698  0.43260  0.26252  1.0000
  C   C463      1.0  0.51050  0.05428  0.38963  1.0000
  C   C464      1.0  0.34596  0.33765  0.34613  1.0000
  H   H816      1.0  0.47149  0.46864  0.04013  1.0000
  C   C465      1.0  0.50508  0.48270  0.20668  1.0000
  C   C466      1.0  0.47706  0.48463  0.25297  1.0000
  H   H817      1.0  0.35684  0.20923  0.21659  1.0000
  H   H818      1.0  0.44153  0.02154  0.36754  1.0000
  H   H819      1.0  0.56161  0.05275  0.07118  1.0000
  C   C467      1.0  0.50417  0.02101  0.25444  1.0000
  C   C468      1.0  0.59225  0.08130  0.02688  1.0000
  H   H820      1.0  0.37598  0.12826  0.08886  1.0000
  C   C469      1.0  0.56857  0.46018  0.22575  1.0000
  S   S108      1.0  0.45768  0.01305  0.04561  1.0000
  C   C470      1.0  0.50946  0.00668  0.47571  1.0000
  C   C471      1.0  0.35533  0.09404  0.20810  1.0000
  C   C472      1.0  0.58396  0.99780  0.01137  1.0000
  S   S109      1.0  0.53606  0.02050  0.30638  1.0000
  H   H821      1.0  0.45042  0.01337  0.42246  1.0000
  H   H822      1.0  0.58464  0.00087  0.23308  1.0000
  C   C473      1.0  0.50564  0.43313  0.33980  1.0000
  C   C474      1.0  0.48772  0.01062  0.23166  1.0000
  C   C475      1.0  0.51841  0.44209  0.30849  1.0000
  H   H823      1.0  0.47985  0.45808  0.45501  1.0000
  H   H824      1.0  0.53741  0.44021  0.24489  1.0000
  C   C476      1.0  0.48349  0.41636  0.33234  1.0000
  H   H825      1.0  0.51905  0.01940  0.45999  1.0000
  C   C477      1.0  0.48643  0.03935  0.38911  1.0000
  H   H826      1.0  0.33791  0.32213  0.41270  1.0000
  H   H827      1.0  0.50751  0.04078  0.25418  1.0000
  H   H828      1.0  0.47549  0.02095  0.32361  1.0000
  H   H829      1.0  0.47856  0.02233  0.21409  1.0000
  C   C478      1.0  0.45016  0.00390  0.35924  1.0000
  H   H830      1.0  0.52094  0.05163  0.36689  1.0000
  H   H831      1.0  0.37591  0.99971  0.01876  1.0000
  H   H832      1.0  0.52188  0.42537  0.29347  1.0000
  H   H833      1.0  0.53261  0.02773  0.10299  1.0000
  H   H834      1.0  0.36678  0.10074  0.22768  1.0000
  C   C479      1.0  0.56188  0.43915  0.32596  1.0000
  C   C480      1.0  0.55514  0.44813  0.25403  1.0000
  H   H835      1.0  0.59423  0.09314  0.00515  1.0000
  C   C481      1.0  0.61374  0.08792  0.04943  1.0000
  C   C482      1.0  0.43461  0.46167  0.02211  1.0000
  H   H836      1.0  0.62594  0.38432  0.05680  1.0000
  C   C483      1.0  0.34095  0.47583  0.45457  1.0000
  H   H837      1.0  0.40181  0.48264  0.25274  1.0000
  H   H838      1.0  0.61189  0.45369  0.01418  1.0000
  H   H839      1.0  0.48963  0.39949  0.31927  1.0000
  H   H840      1.0  0.47450  0.41057  0.35511  1.0000
  H   H841      1.0  0.46945  0.42639  0.31757  1.0000
  H   H842      1.0  0.50227  0.40035  0.09434  1.0000
  H   H843      1.0  0.46736  0.42726  0.11009  1.0000
  H   H844      1.0  0.37856  0.36112  0.34159  1.0000
  H   H845      1.0  0.35592  0.16211  0.12070  1.0000
  H   H846      1.0  0.60942  0.05125  0.00108  1.0000
  Fe  Fe55      1.0  0.43656  0.48283  0.32446  1.0000
  C   C484      1.0  0.33663  0.13003  0.10145  1.0000
  H   H847      1.0  0.51536  0.04654  0.07479  1.0000
  H   H848      1.0  0.44671  0.01999  0.27773  1.0000
  H   H849      1.0  0.61238  0.07739  0.07230  1.0000
  H   H850      1.0  0.53549  0.46996  0.36129  1.0000
  C   C485      1.0  0.42772  0.46121  0.18162  1.0000
  H   H851      1.0  0.63189  0.08381  0.03782  1.0000
  H   H852      1.0  0.65050  0.12438  0.33300  1.0000
  H   H853      1.0  0.35164  0.27916  0.42522  1.0000
  H   H854      1.0  0.43995  0.46497  0.99668  1.0000
  C   C486      1.0  0.33900  0.20071  0.20895  1.0000
  S   S110      1.0  0.39504  0.48793  0.32563  1.0000
  C   C487      1.0  0.63752  0.38548  0.18144  1.0000
  C   C488      1.0  0.44281  0.45657  0.15110  1.0000
  H   H855      1.0  0.40601  0.01462  0.01610  1.0000
  C   C489      1.0  0.50589  0.41993  0.10107  1.0000
  H   H856      1.0  0.60225  0.42713  0.36598  1.0000
  H   H857      1.0  0.49967  0.48712  0.32474  1.0000
  H   H858      1.0  0.64935  0.21305  0.44444  1.0000
  N   N29       1.0  0.46912  0.99470  0.38329  1.0000
  H   H859      1.0  0.65102  0.42458  0.09786  1.0000
  C   C490      1.0  0.51626  0.00613  0.27755  1.0000
  H   H860      1.0  0.34223  0.14207  0.14951  1.0000
  H   H861      1.0  0.35633  0.32354  0.36019  1.0000
  C   C491      1.0  0.54777  0.04223  0.02337  1.0000
  H   H862      1.0  0.51160  0.42044  0.12675  1.0000
  H   H863      1.0  0.43268  0.03603  0.31103  1.0000
  C   C492      1.0  0.48243  0.43546  0.09561  1.0000
  H   H864      1.0  0.51987  0.01385  0.06722  1.0000
  C   C493      1.0  0.62589  0.39952  0.07477  1.0000
  N   N30       1.0  0.54215  0.45651  0.31294  1.0000
  H   H865      1.0  0.45852  0.44412  0.15773  1.0000
  H   H866      1.0  0.55616  0.48838  0.33875  1.0000
  H   H867      1.0  0.33122  0.13660  0.07726  1.0000
  C   C494      1.0  0.52869  0.03084  0.07708  1.0000
  H   H868      1.0  0.43885  0.47146  0.19977  1.0000
  H   H869      1.0  0.47474  0.04696  0.36941  1.0000
  C   C495      1.0  0.55289  0.03650  0.05934  1.0000
  C   C496      1.0  0.53878  0.47738  0.33668  1.0000
  H   H870      1.0  0.55795  0.43446  0.35150  1.0000
  C   C497      1.0  0.44489  0.47292  0.08018  1.0000
  H   H871      1.0  0.50613  0.07431  0.39220  1.0000
  C   C498      1.0  0.35928  0.36239  0.35093  1.0000
  H   H872      1.0  0.36730  0.10879  0.12247  1.0000
  H   H873      1.0  0.33588  0.03182  0.26192  1.0000
  H   H874      1.0  0.33118  0.22094  0.05458  1.0000
  H   H875      1.0  0.35692  0.17808  0.17385  1.0000
  H   H876      1.0  0.42206  0.44324  0.19235  1.0000
  H   H877      1.0  0.49672  0.46383  0.12764  1.0000
  C   C499      1.0  0.45238  0.47563  0.04433  1.0000
  H   H878      1.0  0.59840  0.00418  0.02841  1.0000
  H   H879      1.0  0.34724  0.33277  0.32027  1.0000
  H   H880      1.0  0.33156  0.17493  0.06080  1.0000
  C   C500      1.0  0.64479  0.17868  0.32576  1.0000
  H   H881      1.0  0.63452  0.47485  0.03064  1.0000
  S   S111      1.0  0.39519  0.99473  0.08727  1.0000
  H   H882      1.0  0.37063  0.38453  0.46903  1.0000
  C   C501      1.0  0.48701  0.46315  0.10397  1.0000
  H   H883      1.0  0.53451  0.47932  0.27119  1.0000
  H   H884      1.0  0.61472  0.41520  0.06503  1.0000
  H   H885      1.0  0.62571  0.08780  0.35046  1.0000
  H   H886      1.0  0.61682  0.39287  0.09711  1.0000
  C   C502      1.0  0.62492  0.10564  0.36378  1.0000
  C   C503      1.0  0.39098  0.00542  0.00216  1.0000
  H   H887      1.0  0.55791  0.47629  0.21640  1.0000
  Fe  Fe56      1.0  0.56235  0.00288  0.34331  1.0000
  H   H888      1.0  0.41066  0.47204  0.17594  1.0000
  H   H889      1.0  0.57444  0.08605  0.03880  1.0000
  H   H890      1.0  0.42344  0.00457  0.30133  1.0000
  H   H891      1.0  0.60882  0.11658  0.35471  1.0000
  C   C504      1.0  0.47886  0.99878  0.01840  1.0000
  H   H892      1.0  0.64970  0.19297  0.39010  1.0000
  H   H893      1.0  0.42240  0.99497  0.46487  1.0000
  H   H894      1.0  0.33866  0.29458  0.45977  1.0000
  H   H895      1.0  0.49855  0.44909  0.35391  1.0000
  H   H896      1.0  0.59793  0.04283  0.03912  1.0000
  H   H897      1.0  0.53425  0.02823  0.01427  1.0000
  H   H898      1.0  0.56145  0.42099  0.31325  1.0000
  C   C505      1.0  0.60700  0.43024  0.34033  1.0000
  H   H899      1.0  0.65410  0.17297  0.27528  1.0000
  C   C506      1.0  0.59309  0.05353  0.01725  1.0000
  C   C507      1.0  0.62279  0.47075  0.00926  1.0000
  H   H900      1.0  0.35290  0.49106  0.46368  1.0000
  C   C508      1.0  0.45310  0.48116  0.13740  1.0000
  S   S112      1.0  0.60318  0.99614  0.33446  1.0000
  H   H901      1.0  0.37235  0.46395  0.99813  1.0000
  H   H902      1.0  0.34946  0.37760  0.33800  1.0000
  H   H903      1.0  0.56549  0.02049  0.06274  1.0000
  C   C509      1.0  0.33427  0.28683  0.43567  1.0000
  H   H904      1.0  0.64859  0.44748  0.18102  1.0000
  H   H905      1.0  0.33410  0.28950  0.36951  1.0000
  H   H906      1.0  0.42783  0.48440  0.08363  1.0000
  C   C510      1.0  0.64913  0.11991  0.35890  1.0000
  H   H907      1.0  0.65949  0.38385  0.12196  1.0000
  H   H908      1.0  0.65146  0.13618  0.40548  1.0000
  C   C511      1.0  0.64712  0.18796  0.29118  1.0000
  C   C512      1.0  0.64997  0.14338  0.38045  1.0000
  H   H909      1.0  0.65999  0.20403  0.28997  1.0000
  H   H910      1.0  0.59084  0.46660  0.33816  1.0000
  C   C513      1.0  0.33171  0.10466  0.20283  1.0000
  H   H911      1.0  0.33491  0.18508  0.22550  1.0000
  C   C514      1.0  0.60500  0.49228  0.00221  1.0000
  H   H912      1.0  0.66059  0.41429  0.05876  1.0000
  H   H913      1.0  0.35296  0.99542  0.23450  1.0000
  H   H914      1.0  0.34098  0.28398  0.99150  1.0000
  H   H915      1.0  0.32804  0.99594  0.20545  1.0000
  C   C515      1.0  0.48457  0.01100  0.98944  1.0000
  H   H916      1.0  0.45103  0.04670  0.75460  1.0000
  C   C516      1.0  0.49232  0.45609  0.61320  1.0000
  Fe  Fe57      1.0  0.58800  0.02161  0.88142  1.0000
  S   S113      1.0  0.60430  0.05981  0.89332  1.0000
  H   H917      1.0  0.39188  0.08247  0.70382  1.0000
  S   S114      1.0  0.54649  0.01591  0.87853  1.0000
  S   S115      1.0  0.43380  0.01597  0.62739  1.0000
  H   H918      1.0  0.48295  0.46174  0.94487  1.0000
  C   C517      1.0  0.40048  0.03691  0.73201  1.0000
  C   C518      1.0  0.46490  0.08086  0.79630  1.0000
  Fe  Fe58      1.0  0.39208  0.02052  0.62902  1.0000
  S   S116      1.0  0.37633  0.05917  0.63976  1.0000
  S   S117      1.0  0.39540  0.49164  0.89857  1.0000
  S   S118      1.0  0.44156  0.45927  0.86871  1.0000
  H   H919      1.0  0.54953  0.01544  0.71678  1.0000
  S   S119      1.0  0.45928  0.47060  0.77906  1.0000
  Fe  Fe59      1.0  0.39955  0.45738  0.86847  1.0000
  S   S120      1.0  0.37279  0.42430  0.86747  1.0000
  S   S121      1.0  0.61034  0.46839  0.58460  1.0000
  S   S122      1.0  0.56120  0.46024  0.62906  1.0000
  Fe  Fe60      1.0  0.60262  0.45500  0.63495  1.0000
  S   S123      1.0  0.61459  0.41803  0.65802  1.0000
  Fe  Fe61      1.0  0.56913  0.47684  0.58040  1.0000
  S   S124      1.0  0.54400  0.46231  0.53969  1.0000
  C   C519      1.0  0.35788  0.40777  0.89872  1.0000
  C   C520      1.0  0.36976  0.40272  0.92791  1.0000
  C   C521      1.0  0.57540  0.47403  0.76548  1.0000
  N   N31       1.0  0.41765  0.05901  0.72999  1.0000
  H   H920      1.0  0.38832  0.40969  0.93225  1.0000
  C   C522      1.0  0.34528  0.47344  0.96130  1.0000
  H   H921      1.0  0.45796  0.07001  0.81712  1.0000
  H   H922      1.0  0.50867  0.44067  0.49625  1.0000
  H   H923      1.0  0.50497  0.00988  0.94464  1.0000
  H   H924      1.0  0.62455  0.05887  0.81950  1.0000
  C   C523      1.0  0.50832  0.99618  0.76175  1.0000
  H   H925      1.0  0.50955  0.42153  0.62846  1.0000
  H   H926      1.0  0.58380  0.48709  0.71695  1.0000
  C   C524      1.0  0.40170  0.08203  0.72746  1.0000
  C   C525      1.0  0.49053  0.47044  0.72682  1.0000
  H   H927      1.0  0.51496  0.46942  0.68556  1.0000
  H   H928      1.0  0.48296  0.45220  0.72231  1.0000
  H   H929      1.0  0.38937  0.03767  0.75447  1.0000
  C   C526      1.0  0.64361  0.40860  0.67501  1.0000
  C   C527      1.0  0.33393  0.39813  0.89323  1.0000
  C   C528      1.0  0.57586  0.01827  0.98731  1.0000
  C   C529      1.0  0.36512  0.45613  0.97529  1.0000
  C   C530      1.0  0.33572  0.26845  0.84465  1.0000
  C   C531      1.0  0.48895  0.01488  0.49396  1.0000
  C   C532      1.0  0.35119  0.06926  0.66423  1.0000
  H   H930      1.0  0.36342  0.11640  0.73003  1.0000
  S   S125      1.0  0.59427  0.00479  0.83273  1.0000
  H   H931      1.0  0.53069  0.09080  0.93822  1.0000
  H   H932      1.0  0.51656  0.01047  0.66981  1.0000
  C   C533      1.0  0.62909  0.06916  0.91911  1.0000
  C   C534      1.0  0.50145  0.42975  0.60633  1.0000
  C   C535      1.0  0.63859  0.05376  0.94329  1.0000
  C   C536      1.0  0.34781  0.29446  0.84877  1.0000
  H   H933      1.0  0.63085  0.03548  0.94665  1.0000
  C   C537      1.0  0.43873  0.48568  0.54177  1.0000
  C   C538      1.0  0.44436  0.08431  0.77116  1.0000
  H   H934      1.0  0.50428  0.02942  0.73337  1.0000
  C   C539      1.0  0.56364  0.06050  0.97338  1.0000
  C   C540      1.0  0.33951  0.05360  0.68629  1.0000
  C   C541      1.0  0.35808  0.38760  0.95097  1.0000
  C   C542      1.0  0.50841  0.46455  0.98524  1.0000
  C   C543      1.0  0.49819  0.01048  0.73651  1.0000
  H   H935      1.0  0.47387  0.01116  0.69490  1.0000
  C   C544      1.0  0.52422  0.47594  0.50990  1.0000
  H   H936      1.0  0.35276  0.10661  0.64585  1.0000
  C   C545      1.0  0.53516  0.07264  0.92707  1.0000
  S   S126      1.0  0.53110  0.00985  0.78736  1.0000
  H   H937      1.0  0.49884  0.04063  0.55629  1.0000
  H   H938      1.0  0.33271  0.23688  0.52517  1.0000
  C   C546      1.0  0.39781  0.35606  0.86703  1.0000
  H   H939      1.0  0.51896  0.06666  0.91239  1.0000
  C   C547      1.0  0.54070  0.05316  0.95285  1.0000
  H   H940      1.0  0.63722  0.37485  0.60619  1.0000
  H   H941      1.0  0.53353  0.03588  0.59539  1.0000
  H   H942      1.0  0.42972  0.01027  0.74762  1.0000
  C   C548      1.0  0.34257  0.27633  0.96680  1.0000
  H   H943      1.0  0.34490  0.03429  0.68768  1.0000
  H   H944      1.0  0.41317  0.09906  0.72744  1.0000
  H   H945      1.0  0.51609  0.42996  0.58755  1.0000
  C   C549      1.0  0.45163  0.07682  0.69204  1.0000
  C   C550      1.0  0.48069  0.00034  0.71488  1.0000
  H   H946      1.0  0.34650  0.47160  0.86142  1.0000
  H   H947      1.0  0.47121  0.09924  0.80510  1.0000
  H   H948      1.0  0.55137  0.07484  0.91083  1.0000
  H   H949      1.0  0.36567  0.07221  0.74838  1.0000
  C   C551      1.0  0.47983  0.46749  0.58310  1.0000
  H   H950      1.0  0.36162  0.27574  0.90599  1.0000
  C   C552      1.0  0.36768  0.32321  0.88670  1.0000
  H   H951      1.0  0.46304  0.45593  0.57910  1.0000
  C   C553      1.0  0.38139  0.08493  0.75359  1.0000
  C   C554      1.0  0.65773  0.37560  0.60315  1.0000
  H   H952      1.0  0.52516  0.44817  0.76823  1.0000
  H   H953      1.0  0.48807  0.00895  0.62387  1.0000
  H   H954      1.0  0.54401  0.03545  0.94034  1.0000
  H   H955      1.0  0.52730  0.42298  0.83472  1.0000
  H   H956      1.0  0.63215  0.10510  0.89675  1.0000
  H   H957      1.0  0.42909  0.09500  0.78256  1.0000
  C   C555      1.0  0.33428  0.26084  0.80936  1.0000
  C   C556      1.0  0.47664  0.99882  0.51531  1.0000
  H   H958      1.0  0.44838  0.07432  0.63984  1.0000
  C   C557      1.0  0.37077  0.11123  0.75412  1.0000
  C   C558      1.0  0.51414  0.03515  0.60433  1.0000
  H   H959      1.0  0.53888  0.00483  0.55869  1.0000
  H   H960      1.0  0.42512  0.05035  0.78015  1.0000
  H   H961      1.0  0.47865  0.45483  0.63306  1.0000
  H   H962      1.0  0.33013  0.47483  0.97917  1.0000
  N   N32       1.0  0.57585  0.44636  0.75942  1.0000
  C   C559      1.0  0.56141  0.43427  0.78625  1.0000
  C   C560      1.0  0.60267  0.43799  0.76122  1.0000
  H   H963      1.0  0.35980  0.26497  0.96545  1.0000
  C   C561      1.0  0.56503  0.44121  0.72649  1.0000
  C   C562      1.0  0.55180  0.41589  0.72164  1.0000
  H   H964      1.0  0.35311  0.26052  0.79845  1.0000
  C   C563      1.0  0.50835  0.46045  0.49192  1.0000
  C   C564      1.0  0.60779  0.40990  0.75726  1.0000
  C   C565      1.0  0.54439  0.41200  0.68658  1.0000
  H   H965      1.0  0.53545  0.46235  0.80484  1.0000
  H   H966      1.0  0.41947  0.05502  0.67846  1.0000
  H   H967      1.0  0.57153  0.43643  0.80951  1.0000
  H   H968      1.0  0.56003  0.41397  0.78273  1.0000
  H   H969      1.0  0.61378  0.44676  0.74182  1.0000
  H   H970      1.0  0.61112  0.44413  0.78439  1.0000
  H   H971      1.0  0.48115  0.07106  0.78572  1.0000
  H   H972      1.0  0.35170  0.46419  0.91211  1.0000
  H   H973      1.0  0.55105  0.45556  0.71994  1.0000
  H   H974      1.0  0.57969  0.44295  0.70773  1.0000
  H   H975      1.0  0.53445  0.41508  0.73591  1.0000
  H   H976      1.0  0.56364  0.40008  0.72903  1.0000
  H   H977      1.0  0.59452  0.48720  0.98019  1.0000
  H   H978      1.0  0.51496  0.44565  0.98289  1.0000
  H   H979      1.0  0.33605  0.46311  0.80511  1.0000
  H   H980      1.0  0.52385  0.05128  0.96795  1.0000
  H   H981      1.0  0.59629  0.39843  0.77346  1.0000
  H   H982      1.0  0.60433  0.40434  0.73196  1.0000
  H   H983      1.0  0.56112  0.41139  0.67104  1.0000
  H   H984      1.0  0.53438  0.39413  0.68398  1.0000
  H   H985      1.0  0.53192  0.42718  0.67840  1.0000
  N   N33       1.0  0.34518  0.30695  0.88121  1.0000
  H   H986      1.0  0.38320  0.01908  0.98482  1.0000
  C   C566      1.0  0.33417  0.37791  0.94551  1.0000
  H   H987      1.0  0.36784  0.29143  0.84299  1.0000
  S   S127      1.0  0.39607  0.47867  0.82217  1.0000
  C   C567      1.0  0.65921  0.10112  0.93495  1.0000
  H   H988      1.0  0.51346  0.04531  0.62753  1.0000
  H   H989      1.0  0.57990  0.06231  0.95699  1.0000
  H   H990      1.0  0.65447  0.01774  0.84486  1.0000
  H   H991      1.0  0.39706  0.36533  0.89084  1.0000
  H   H992      1.0  0.50850  0.46704  0.62127  1.0000
  H   H993      1.0  0.45192  0.09584  0.75154  1.0000
  S   S128      1.0  0.45100  0.01042  0.53772  1.0000
  H   H994      1.0  0.58210  0.47818  0.79029  1.0000
  H   H995      1.0  0.54402  0.02015  0.65017  1.0000
  C   C568      1.0  0.49736  0.04898  0.58060  1.0000
  H   H996      1.0  0.38461  0.31148  0.89017  1.0000
  C   C569      1.0  0.41321  0.01101  0.73161  1.0000
  H   H997      1.0  0.35705  0.43762  0.98044  1.0000
  H   H998      1.0  0.48585  0.41782  0.59818  1.0000
  C   C570      1.0  0.46301  0.07309  0.65876  1.0000
  H   H999      1.0  0.47763  0.04827  0.58845  1.0000
  H   H1000     1.0  0.35863  0.35689  0.85871  1.0000
  H   H1001     1.0  0.44508  0.46703  0.53392  1.0000
  C   C571      1.0  0.65816  0.06205  0.96326  1.0000
  H   H1002     1.0  0.35520  0.11226  0.77154  1.0000
  H   H1003     1.0  0.41375  0.34292  0.86667  1.0000
  S   S129      1.0  0.60764  0.49252  0.65718  1.0000
  C   C572      1.0  0.43237  0.05638  0.69938  1.0000
  C   C573      1.0  0.63501  0.40382  0.76477  1.0000
  C   C574      1.0  0.63872  0.05137  0.80268  1.0000
  H   H1004     1.0  0.57688  0.01452  0.69164  1.0000
  H   H1005     1.0  0.63924  0.06347  0.78109  1.0000
  C   C575      1.0  0.43460  0.05888  0.75910  1.0000
  H   H1006     1.0  0.38877  0.08040  0.77783  1.0000
  C   C576      1.0  0.34344  0.29765  0.94259  1.0000
  H   H1007     1.0  0.36554  0.33428  0.90911  1.0000
  H   H1008     1.0  0.37519  0.33382  0.83601  1.0000
  C   C577      1.0  0.53466  0.44455  0.79144  1.0000
  H   H1009     1.0  0.48274  0.03392  0.49181  1.0000
  H   H1010     1.0  0.49999  0.43515  0.81481  1.0000
  H   H1011     1.0  0.55600  0.48128  0.76396  1.0000
  H   H1012     1.0  0.43802  0.48561  0.67335  1.0000
  C   C578      1.0  0.37344  0.34255  0.86001  1.0000
  H   H1013     1.0  0.51609  0.40900  0.79777  1.0000
  H   H1014     1.0  0.35989  0.30904  0.94883  1.0000
  C   C579      1.0  0.51864  0.42672  0.81092  1.0000
  H   H1015     1.0  0.46714  0.07585  0.70968  1.0000
  H   H1016     1.0  0.59054  0.02007  0.96860  1.0000
  H   H1017     1.0  0.33144  0.44382  0.93112  1.0000
  H   H1018     1.0  0.44315  0.09555  0.69243  1.0000
  H   H1019     1.0  0.49919  0.00064  0.58572  1.0000
  C   C580      1.0  0.53274  0.00346  0.65590  1.0000
  H   H1020     1.0  0.47704  0.08772  0.65412  1.0000
  H   H1021     1.0  0.44314  0.03890  0.69951  1.0000
  C   C581      1.0  0.34379  0.09430  0.66273  1.0000
  H   H1022     1.0  0.40093  0.37056  0.84849  1.0000
  C   C582      1.0  0.50539  0.00802  0.60931  1.0000
  H   H1023     1.0  0.38090  0.45404  0.95833  1.0000
  H   H1024     1.0  0.34706  0.25429  0.85755  1.0000
  H   H1025     1.0  0.63102  0.37129  0.68386  1.0000
  H   H1026     1.0  0.34056  0.30684  0.82939  1.0000
  H   H1027     1.0  0.47233  0.05473  0.65724  1.0000
  H   H1028     1.0  0.50312  0.06869  0.57902  1.0000
  C   C583      1.0  0.49022  0.47361  0.96360  1.0000
  H   H1029     1.0  0.38529  0.12473  0.76142  1.0000
  C   C584      1.0  0.63941  0.09294  0.91526  1.0000
  H   H1030     1.0  0.32832  0.42639  0.51422  1.0000
  H   H1031     1.0  0.38682  0.03730  0.71179  1.0000
  C   C585      1.0  0.33560  0.46384  0.92861  1.0000
  C   C586      1.0  0.50878  0.48008  0.70602  1.0000
  H   H1032     1.0  0.49215  0.46408  0.56209  1.0000
  H   H1033     1.0  0.63856  0.38380  0.76044  1.0000
  H   H1034     1.0  0.36776  0.38314  0.97309  1.0000
  C   C587      1.0  0.64648  0.38398  0.68588  1.0000
  S   S130      1.0  0.38651  0.00334  0.58030  1.0000
  H   H1035     1.0  0.41924  0.00643  0.70685  1.0000
  C   C588      1.0  0.48201  0.48412  0.75344  1.0000
  Fe  Fe62      1.0  0.55320  0.99619  0.83155  1.0000
  H   H1036     1.0  0.33102  0.40224  0.56418  1.0000
  H   H1037     1.0  0.63317  0.03246  0.79499  1.0000
  H   H1038     1.0  0.64761  0.41466  0.74904  1.0000
  H   H1039     1.0  0.55943  0.07951  0.98213  1.0000
  H   H1040     1.0  0.42504  0.48352  0.56144  1.0000
  H   H1041     1.0  0.63945  0.40794  0.79029  1.0000
  H   H1042     1.0  0.35415  0.49183  0.95805  1.0000
  C   C589      1.0  0.34475  0.28774  0.90768  1.0000
  H   H1043     1.0  0.40997  0.48539  0.50492  1.0000
  H   H1044     1.0  0.55942  0.01037  0.97478  1.0000
  C   C590      1.0  0.59042  0.49028  0.74181  1.0000
  Fe  Fe63      1.0  0.43777  0.48304  0.82406  1.0000
  C   C591      1.0  0.56254  0.00307  0.70369  1.0000
  H   H1045     1.0  0.44188  0.48327  0.61393  1.0000
  H   H1046     1.0  0.47581  0.02863  0.98411  1.0000
  Fe  Fe64      1.0  0.42797  0.99619  0.58027  1.0000
  H   H1047     1.0  0.61064  0.48631  0.74316  1.0000
  C   C592      1.0  0.50127  0.00052  0.96710  1.0000
  H   H1048     1.0  0.56157  0.99942  0.60919  1.0000
  H   H1049     1.0  0.65082  0.04535  0.86681  1.0000
  H   H1050     1.0  0.64511  0.00913  0.89981  1.0000
  H   H1051     1.0  0.32865  0.27509  0.90499  1.0000
  H   H1052     1.0  0.39030  0.99312  0.76797  1.0000
  H   H1053     1.0  0.63504  0.46721  0.98832  1.0000
  S   S131      1.0  0.55655  0.96574  0.36608  1.0000
  C   C593      1.0  0.51442  0.51472  0.35636  1.0000
  Fe  Fe65      1.0  0.59791  0.96023  0.36077  1.0000
  S   S132      1.0  0.61344  0.92151  0.35054  1.0000
  C   C594      1.0  0.43516  0.97681  0.42089  1.0000
  S   S133      1.0  0.54396  0.97083  0.45685  1.0000
  H   H1054     1.0  0.50924  0.93605  0.19886  1.0000
  H   H1055     1.0  0.64037  0.87563  0.34835  1.0000
  Fe  Fe66      1.0  0.39982  0.95998  0.11623  1.0000
  S   S134      1.0  0.37932  0.92288  0.11086  1.0000
  S   S135      1.0  0.44177  0.96245  0.11619  1.0000
  H   H1056     1.0  0.59054  0.58544  0.02816  1.0000
  Fe  Fe67      1.0  0.40218  0.52253  0.35365  1.0000
  S   S136      1.0  0.38434  0.56057  0.34508  1.0000
  S   S137      1.0  0.60638  0.97676  0.40910  1.0000
  H   H1057     1.0  0.38719  0.54228  0.21443  1.0000
  S   S138      1.0  0.44382  0.51872  0.34967  1.0000
  Fe  Fe68      1.0  0.56525  0.98488  0.41281  1.0000
  Fe  Fe69      1.0  0.60561  0.50924  0.10773  1.0000
  C   C595      1.0  0.43757  0.92646  0.01764  1.0000
  S   S139      1.0  0.64113  0.52761  0.08867  1.0000
  S   S140      1.0  0.53392  0.52242  0.18624  1.0000
  C   C596      1.0  0.51782  0.49631  0.32881  1.0000
  S   S141      1.0  0.56526  0.51930  0.09997  1.0000
  C   C597      1.0  0.66059  0.91378  0.27429  1.0000
  C   C598      1.0  0.64333  0.60103  0.06261  1.0000
  C   C599      1.0  0.63505  0.57818  0.07530  1.0000
  C   C600      1.0  0.43970  0.90337  0.07072  1.0000
  H   H1058     1.0  0.61664  0.57669  0.08549  1.0000
  H   H1059     1.0  0.61025  0.91252  0.24605  1.0000
  C   C601      1.0  0.58937  0.54509  0.02136  1.0000
  H   H1060     1.0  0.40633  0.57537  0.28516  1.0000
  C   C602      1.0  0.48438  0.50915  0.25817  1.0000
  C   C603      1.0  0.49324  0.95461  0.39843  1.0000
  H   H1061     1.0  0.41395  0.52318  0.27500  1.0000
  C   C604      1.0  0.50174  0.52046  0.23753  1.0000
  C   C605      1.0  0.57498  0.94180  0.26554  1.0000
  H   H1062     1.0  0.47697  0.51923  0.27841  1.0000
  H   H1063     1.0  0.50739  0.53939  0.24193  1.0000
  C   C606      1.0  0.63627  0.91041  0.32327  1.0000
  H   H1064     1.0  0.32858  0.73107  0.45153  1.0000
  H   H1065     1.0  0.54317  0.86866  0.32621  1.0000
  N   N34       1.0  0.42269  0.94014  0.99236  1.0000
  H   H1066     1.0  0.63837  0.92749  0.41707  1.0000
  H   H1067     1.0  0.44239  0.96842  0.47139  1.0000
  C   C607      1.0  0.40960  0.52202  0.24899  1.0000
  C   C608      1.0  0.51849  0.91944  0.18850  1.0000
  H   H1068     1.0  0.59232  0.94279  0.28027  1.0000
  H   H1069     1.0  0.33097  0.92360  0.00924  1.0000
  C   C609      1.0  0.49030  0.97597  0.02487  1.0000
  H   H1070     1.0  0.57583  0.87193  0.21866  1.0000
  H   H1071     1.0  0.39906  0.95982  0.02614  1.0000
  H   H1072     1.0  0.45661  0.51882  0.09382  1.0000
  C   C610      1.0  0.64617  0.88649  0.32784  1.0000
  H   H1073     1.0  0.35787  0.60641  0.33619  1.0000
  C   C611      1.0  0.35834  0.91089  0.08153  1.0000
  H   H1074     1.0  0.65766  0.91797  0.45036  1.0000
  C   C612      1.0  0.35882  0.61769  0.22152  1.0000
  H   H1075     1.0  0.59978  0.96072  0.01174  1.0000
  C   C613      1.0  0.35745  0.56801  0.32189  1.0000
  H   H1076     1.0  0.65355  0.95051  0.44196  1.0000
  C   C614      1.0  0.50938  0.50397  0.01261  1.0000
  H   H1077     1.0  0.51043  0.96494  0.40400  1.0000
  C   C615      1.0  0.42099  0.57866  0.26685  1.0000
  C   C616      1.0  0.49129  0.49579  0.46254  1.0000
  C   C617      1.0  0.35184  0.92404  0.05372  1.0000
  C   C618      1.0  0.43384  0.56364  0.21200  1.0000
  N   N35       1.0  0.57070  0.91543  0.25465  1.0000
  H   H1078     1.0  0.37478  0.59863  0.26195  1.0000
  H   H1079     1.0  0.43787  0.49525  0.13773  1.0000
  H   H1080     1.0  0.42682  0.51780  0.23559  1.0000
  H   H1081     1.0  0.38751  0.49743  0.21855  1.0000
  H   H1082     1.0  0.43847  0.59722  0.18280  1.0000
  C   C619      1.0  0.49166  0.51834  0.11981  1.0000
  C   C620      1.0  0.59406  0.87930  0.22668  1.0000
  C   C621      1.0  0.45137  0.57889  0.31380  1.0000
  H   H1083     1.0  0.56811  0.57574  0.99872  1.0000
  H   H1084     1.0  0.56618  0.87965  0.27761  1.0000
  H   H1085     1.0  0.48615  0.55606  0.10206  1.0000
  C   C622      1.0  0.64392  0.92422  0.29665  1.0000
  C   C623      1.0  0.51224  0.50731  0.21171  1.0000
  C   C624      1.0  0.55213  0.90638  0.31112  1.0000
  C   C625      1.0  0.59240  0.90743  0.23410  1.0000
  C   C626      1.0  0.44916  0.58643  0.20099  1.0000
  H   H1086     1.0  0.45343  0.59889  0.22147  1.0000
  C   C627      1.0  0.49497  0.97026  0.25513  1.0000
  H   H1087     1.0  0.63661  0.94269  0.29290  1.0000
  S   S142      1.0  0.39623  0.97992  0.16352  1.0000
  C   C628      1.0  0.47363  0.57850  0.18540  1.0000
  C   C629      1.0  0.50078  0.92917  0.38557  1.0000
  S   S143      1.0  0.47076  0.50950  0.43370  1.0000
  H   H1088     1.0  0.46170  0.57285  0.26504  1.0000
  H   H1089     1.0  0.51169  0.53950  0.08355  1.0000
  H   H1090     1.0  0.52039  0.96900  0.29568  1.0000
  H   H1091     1.0  0.59269  0.91746  0.21088  1.0000
  C   C630      1.0  0.42720  0.97609  0.45613  1.0000
  H   H1092     1.0  0.46098  0.95732  0.36705  1.0000
  H   H1093     1.0  0.47006  0.56622  0.16449  1.0000
  C   C631      1.0  0.55055  0.88609  0.33670  1.0000
  S   S144      1.0  0.46191  0.97093  0.20439  1.0000
  C   C632      1.0  0.39234  0.49981  0.24432  1.0000
  H   H1094     1.0  0.53204  0.52466  0.36151  1.0000
  H   H1095     1.0  0.37496  0.50230  0.25834  1.0000
  S   S145      1.0  0.40085  0.50323  0.40165  1.0000
  H   H1096     1.0  0.38626  0.92452  0.00072  1.0000
  H   H1097     1.0  0.58907  0.95664  0.21926  1.0000
  C   C633      1.0  0.54520  0.91720  0.20094  1.0000
  H   H1098     1.0  0.44623  0.90943  0.00784  1.0000
  H   H1099     1.0  0.50756  0.90268  0.19476  1.0000
  C   C634      1.0  0.44572  0.56812  0.28061  1.0000
  H   H1100     1.0  0.34097  0.71844  0.25280  1.0000
  H   H1101     1.0  0.56462  0.56960  0.07214  1.0000
  C   C635      1.0  0.39643  0.58891  0.21875  1.0000
  H   H1102     1.0  0.45345  0.59934  0.31244  1.0000
  H   H1103     1.0  0.46897  0.57081  0.32325  1.0000
  S   S146      1.0  0.60004  0.49621  0.15897  1.0000
  C   C636      1.0  0.55636  0.57227  0.04787  1.0000
  H   H1104     1.0  0.55980  0.94814  0.28161  1.0000
  H   H1105     1.0  0.57499  0.53072  0.02527  1.0000
  H   H1106     1.0  0.53781  0.89421  0.24170  1.0000
  C   C637      1.0  0.51773  0.98215  0.47831  1.0000
  H   H1107     1.0  0.51852  0.92150  0.16194  1.0000
  H   H1108     1.0  0.45347  0.93814  0.02565  1.0000
  H   H1109     1.0  0.37059  0.63442  0.22449  1.0000
  H   H1110     1.0  0.40673  0.60673  0.21707  1.0000
  H   H1111     1.0  0.38152  0.54943  0.25543  1.0000
  N   N36       1.0  0.41252  0.56917  0.23439  1.0000
  C   C638      1.0  0.61344  0.87396  0.20079  1.0000
  H   H1112     1.0  0.55403  0.90128  0.18847  1.0000
  C   C639      1.0  0.34533  0.55038  0.30290  1.0000
  H   H1113     1.0  0.44496  0.54779  0.28295  1.0000
  H   H1114     1.0  0.64567  0.61120  0.14213  1.0000
  H   H1115     1.0  0.49115  0.95059  0.25579  1.0000
  H   H1116     1.0  0.48410  0.91744  0.38165  1.0000
  H   H1117     1.0  0.65656  0.71023  0.09849  1.0000
  H   H1118     1.0  0.60823  0.88315  0.17782  1.0000
  H   H1119     1.0  0.51314  0.91981  0.40332  1.0000
  H   H1120     1.0  0.58956  0.89845  0.29527  1.0000
  H   H1121     1.0  0.54195  0.55795  0.04345  1.0000
  C   C640      1.0  0.34865  0.59263  0.32156  1.0000
  H   H1122     1.0  0.51477  0.55108  0.12394  1.0000
  H   H1123     1.0  0.42863  0.97352  0.02022  1.0000
  C   C641      1.0  0.37159  0.59492  0.23607  1.0000
  C   C642      1.0  0.47729  0.96901  0.37347  1.0000
  H   H1124     1.0  0.46619  0.98980  0.31412  1.0000
  H   H1125     1.0  0.63289  0.56435  0.01016  1.0000
  H   H1126     1.0  0.43973  0.95757  0.41368  1.0000
  H   H1127     1.0  0.48565  0.56854  0.20297  1.0000
  C   C643      1.0  0.54580  0.91302  0.23788  1.0000
  H   H1128     1.0  0.35837  0.57925  0.23369  1.0000
  H   H1129     1.0  0.65765  0.69101  0.14726  1.0000
  H   H1130     1.0  0.51106  0.93105  0.36260  1.0000
  H   H1131     1.0  0.53207  0.92596  0.24892  1.0000
  H   H1132     1.0  0.63109  0.61698  0.06307  1.0000
  H   H1133     1.0  0.65680  0.65295  0.12038  1.0000
  H   H1134     1.0  0.48639  0.96649  0.04720  1.0000
  C   C644      1.0  0.33571  0.91334  0.03076  1.0000
  H   H1135     1.0  0.65722  0.98843  0.34617  1.0000
  C   C645      1.0  0.34819  0.88712  0.08620  1.0000
  H   H1136     1.0  0.45634  0.91422  0.07794  1.0000
  H   H1137     1.0  0.55857  0.92338  0.32347  1.0000
  H   H1138     1.0  0.56923  0.88246  0.34732  1.0000
  H   H1139     1.0  0.60146  0.54377  0.04311  1.0000
  H   H1140     1.0  0.60000  0.86895  0.24854  1.0000
  C   C646      1.0  0.59484  0.97533  0.99399  1.0000
  H   H1141     1.0  0.61467  0.85367  0.19659  1.0000
  H   H1142     1.0  0.47168  0.99036  0.43494  1.0000
  C   C647      1.0  0.57066  0.89912  0.28424  1.0000
  C   C648      1.0  0.39665  0.54625  0.23776  1.0000
  H   H1143     1.0  0.39171  0.58358  0.19357  1.0000
  H   H1144     1.0  0.55520  0.93412  0.19357  1.0000
  H   H1145     1.0  0.42680  0.55431  0.18987  1.0000
  H   H1146     1.0  0.53797  0.89211  0.35629  1.0000
  H   H1147     1.0  0.35482  0.61470  0.19560  1.0000
  H   H1148     1.0  0.34086  0.62102  0.23398  1.0000
  H   H1149     1.0  0.53318  0.90969  0.30131  1.0000
  H   H1150     1.0  0.44572  0.88587  0.05904  1.0000
  H   H1151     1.0  0.35930  0.94239  0.04991  1.0000
  C   C649      1.0  0.57658  0.57096  0.02228  1.0000
  H   H1152     1.0  0.63208  0.88058  0.20863  1.0000
  H   H1153     1.0  0.42333  0.59917  0.26634  1.0000
  H   H1154     1.0  0.48306  0.95154  0.42121  1.0000
  H   H1155     1.0  0.35177  0.53136  0.30301  1.0000
  H   H1156     1.0  0.54730  0.59078  0.04716  1.0000
  H   H1157     1.0  0.43625  0.57441  0.33093  1.0000
  H   H1158     1.0  0.64685  0.71428  0.04184  1.0000
  Fe  Fe70      1.0  0.55909  0.50309  0.14967  1.0000
  C   C650      1.0  0.65554  0.93189  0.43086  1.0000
  H   H1159     1.0  0.50821  0.50496  0.37845  1.0000
  H   H1160     1.0  0.40683  0.90687  0.04185  1.0000
  H   H1161     1.0  0.44706  0.55019  0.22290  1.0000
  H   H1162     1.0  0.42913  0.89860  0.09276  1.0000
  C   C651      1.0  0.57621  0.96179  0.23885  1.0000
  H   H1163     1.0  0.48383  0.59512  0.17689  1.0000
  C   C652      1.0  0.61956  0.51659  0.99676  1.0000
  H   H1164     1.0  0.51675  0.51584  0.03123  1.0000
  C   C653      1.0  0.65062  0.55733  0.07459  1.0000
  H   H1165     1.0  0.41660  0.93497  0.06154  1.0000
  N   N37       1.0  0.60439  0.53987  0.99152  1.0000
  H   H1166     1.0  0.50001  0.52863  0.34975  1.0000
  C   C654      1.0  0.42312  0.91850  0.04807  1.0000
  C   C655      1.0  0.41322  0.96386  0.00744  1.0000
  C   C656      1.0  0.50160  0.54275  0.10638  1.0000
  C   C657      1.0  0.51162  0.98062  0.27773  1.0000
  H   H1167     1.0  0.50775  0.50592  0.12453  1.0000
  H   H1168     1.0  0.55730  0.96502  0.22879  1.0000
  H   H1169     1.0  0.65043  0.68007  0.08179  1.0000
  H   H1170     1.0  0.48227  0.50633  0.07227  1.0000
  H   H1171     1.0  0.35309  0.87677  0.10760  1.0000
  Fe  Fe71      1.0  0.44221  0.49666  0.39581  1.0000
  H   H1172     1.0  0.50685  0.53107  0.47615  1.0000
  H   H1173     1.0  0.48861  0.96996  0.35114  1.0000
  Fe  Fe72      1.0  0.43798  0.98481  0.16187  1.0000
  C   C658      1.0  0.58527  0.98652  0.25222  1.0000
  H   H1174     1.0  0.52261  0.50718  0.30707  1.0000
  H   H1175     1.0  0.48445  0.53187  0.99339  1.0000
  H   H1176     1.0  0.51578  0.94788  0.00784  1.0000
  C   C659      1.0  0.47297  0.50616  0.09610  1.0000
  H   H1177     1.0  0.48260  0.52281  0.14302  1.0000
  H   H1178     1.0  0.63247  0.51920  0.01757  1.0000
  H   H1179     1.0  0.45177  0.49548  0.03714  1.0000
  H   H1180     1.0  0.60471  0.98483  0.26110  1.0000
  H   H1181     1.0  0.41062  0.96405  0.45885  1.0000
  H   H1182     1.0  0.59199  0.49387  0.02268  1.0000
  C   C660      1.0  0.49111  0.51301  0.99105  1.0000
  C   C661      1.0  0.48292  0.98515  0.23193  1.0000
  C   C662      1.0  0.50708  0.96554  0.00257  1.0000
  H   H1183     1.0  0.65345  0.73342  0.17161  1.0000
  C   C663      1.0  0.33180  0.87656  0.06346  1.0000
  H   H1184     1.0  0.41894  0.98320  0.40649  1.0000
  C   C664      1.0  0.50719  0.51129  0.48048  1.0000
  H   H1185     1.0  0.33719  0.97034  0.48615  1.0000
  H   H1186     1.0  0.43446  0.99059  0.35738  1.0000
  H   H1187     1.0  0.66044  0.94296  0.36491  1.0000
  C   C665      1.0  0.32811  0.59963  0.30230  1.0000
  H   H1188     1.0  0.56748  0.99130  0.02498  1.0000
  S   S147      1.0  0.55841  0.95844  0.85463  1.0000
  H   H1189     1.0  0.58593  0.55627  0.95001  1.0000
  Fe  Fe73      1.0  0.59930  0.96827  0.85827  1.0000
  S   S148      1.0  0.63640  0.94765  0.84994  1.0000
  C   C666      1.0  0.49300  0.53819  0.58397  1.0000
  S   S149      1.0  0.53344  0.96329  0.94590  1.0000
  H   H1190     1.0  0.45473  0.52110  0.55308  1.0000
  S   S150      1.0  0.45070  0.96222  0.69183  1.0000
  Fe  Fe74      1.0  0.38314  0.96685  0.60638  1.0000
  S   S151      1.0  0.34862  0.94205  0.60146  1.0000
  S   S152      1.0  0.42431  0.95835  0.60313  1.0000
  H   H1191     1.0  0.63492  0.59877  0.52360  1.0000
  Fe  Fe75      1.0  0.39343  0.51309  0.85212  1.0000
  S   S153      1.0  0.35833  0.53779  0.85116  1.0000
  C   C667      1.0  0.35019  0.58543  0.77511  1.0000
  H   H1192     1.0  0.56278  0.97739  0.52386  1.0000
  S   S154      1.0  0.43511  0.51938  0.85114  1.0000
  H   H1193     1.0  0.36127  0.59184  0.75511  1.0000
  Fe  Fe76      1.0  0.61341  0.50665  0.60663  1.0000
  S   S155      1.0  0.64883  0.53000  0.60074  1.0000
  H   H1194     1.0  0.62451  0.87187  0.78427  1.0000
  C   C668      1.0  0.56167  0.52728  0.96581  1.0000
  H   H1195     1.0  0.36788  0.89492  0.94808  1.0000
  S   S156      1.0  0.57270  0.51583  0.59942  1.0000
  H   H1196     1.0  0.47616  0.54489  0.59661  1.0000
  H   H1197     1.0  0.47314  0.52485  0.64513  1.0000
  C   C669      1.0  0.64022  0.56882  0.55751  1.0000
  H   H1198     1.0  0.41675  0.88793  0.98571  1.0000
  H   H1199     1.0  0.62195  0.56101  0.55357  1.0000
  H   H1200     1.0  0.51739  0.53578  0.74216  1.0000
  C   C670      1.0  0.47178  0.93591  0.92272  1.0000
  H   H1201     1.0  0.33523  0.82445  0.63541  1.0000
  H   H1202     1.0  0.37816  0.99089  0.72740  1.0000
  H   H1203     1.0  0.33015  0.52658  0.75844  1.0000
  C   C671      1.0  0.45449  0.49948  0.61124  1.0000
  H   H1204     1.0  0.54874  0.53826  0.91805  1.0000
  H   H1205     1.0  0.40449  0.97228  0.73954  1.0000
  C   C672      1.0  0.34120  0.91736  0.57485  1.0000
  H   H1206     1.0  0.51923  0.54805  0.62214  1.0000
  C   C673      1.0  0.64608  0.92148  0.82678  1.0000
  C   C674      1.0  0.62918  0.90532  0.81215  1.0000
  H   H1207     1.0  0.37862  0.56007  0.79234  1.0000
  H   H1208     1.0  0.60944  0.90887  0.81414  1.0000
  H   H1209     1.0  0.37184  0.68098  0.76223  1.0000
  S   S157      1.0  0.38646  0.98469  0.65534  1.0000
  H   H1210     1.0  0.33088  0.87944  0.64037  1.0000
  H   H1211     1.0  0.36019  0.63649  0.83635  1.0000
  H   H1212     1.0  0.37114  0.88263  0.98836  1.0000
  C   C675      1.0  0.52354  0.50148  0.50398  1.0000
  C   C676      1.0  0.50043  0.97164  0.76529  1.0000
  C   C677      1.0  0.48268  0.96161  0.74385  1.0000
  H   H1213     1.0  0.65639  0.54410  0.96752  1.0000
  H   H1214     1.0  0.50807  0.96036  0.78446  1.0000
  H   H1215     1.0  0.47675  0.94260  0.74683  1.0000
  H   H1216     1.0  0.53565  0.51368  0.51743  1.0000
  C   C678      1.0  0.40508  0.89892  0.96893  1.0000
  C   C679      1.0  0.35738  0.90954  0.55064  1.0000
  C   C680      1.0  0.65783  0.87703  0.90044  1.0000
  H   H1217     1.0  0.37527  0.91842  0.54802  1.0000
  C   C681      1.0  0.34625  0.55924  0.82250  1.0000
  C   C682      1.0  0.47267  0.97589  0.71855  1.0000
  H   H1218     1.0  0.63148  0.51273  0.97559  1.0000
  C   C683      1.0  0.38057  0.88490  0.96481  1.0000
  Fe  Fe77      1.0  0.42783  0.97888  0.65042  1.0000
  C   C684      1.0  0.54856  0.98723  0.67914  1.0000
  H   H1219     1.0  0.63343  0.55242  0.93749  1.0000
  S   S158      1.0  0.54148  0.51691  0.68567  1.0000
  H   H1220     1.0  0.35303  0.73059  0.90899  1.0000
  H   H1221     1.0  0.35790  0.65180  0.77278  1.0000
  C   C685      1.0  0.33167  0.78815  0.53775  1.0000
  H   H1222     1.0  0.59711  0.52903  0.73103  1.0000
  H   H1223     1.0  0.36304  0.88428  0.51108  1.0000
  C   C686      1.0  0.34949  0.68213  0.80557  1.0000
  H   H1224     1.0  0.64667  0.77437  0.81142  1.0000
  H   H1225     1.0  0.34223  0.85985  0.67263  1.0000
  H   H1226     1.0  0.63299  0.66015  0.61299  1.0000
  H   H1227     1.0  0.53621  0.97451  0.69276  1.0000
  H   H1228     1.0  0.33312  0.78865  0.60355  1.0000
  H   H1229     1.0  0.64321  0.59718  0.94648  1.0000
  H   H1230     1.0  0.48549  0.51852  0.77908  1.0000
  H   H1231     1.0  0.51156  0.57286  0.59475  1.0000
  H   H1232     1.0  0.48773  0.92344  0.91747  1.0000
  H   H1233     1.0  0.33101  0.79399  0.67131  1.0000
  H   H1234     1.0  0.58110  0.96747  0.97690  1.0000
  C   C687      1.0  0.65648  0.55757  0.57949  1.0000
  C   C688      1.0  0.65835  0.69006  0.56873  1.0000
  C   C689      1.0  0.64768  0.59016  0.54043  1.0000
  H   H1235     1.0  0.53201  0.54846  0.58183  1.0000
  C   C690      1.0  0.50525  0.96603  0.49940  1.0000
  C   C691      1.0  0.33925  0.65719  0.87317  1.0000
  H   H1236     1.0  0.34977  0.78144  0.54739  1.0000
  H   H1237     1.0  0.47541  0.96161  0.53377  1.0000
  C   C692      1.0  0.64220  0.55812  0.96049  1.0000
  H   H1238     1.0  0.44198  0.51526  0.60486  1.0000
  H   H1239     1.0  0.44955  0.96458  0.97002  1.0000
  H   H1240     1.0  0.36537  0.67714  0.82142  1.0000
  H   H1241     1.0  0.59814  0.52633  0.94322  1.0000
  C   C693      1.0  0.63782  0.88430  0.79523  1.0000
  H   H1242     1.0  0.65365  0.89464  0.88761  1.0000
  N   N38       1.0  0.47302  0.49464  0.58467  1.0000
  C   C694      1.0  0.56577  0.97629  0.55023  1.0000
  H   H1243     1.0  0.35692  0.66704  0.87886  1.0000
  C   C695      1.0  0.48485  0.97428  0.51782  1.0000
  C   C696      1.0  0.51272  0.97774  0.97356  1.0000
  C   C697      1.0  0.49189  0.50772  0.75883  1.0000
  C   C698      1.0  0.36072  0.61526  0.87985  1.0000
  H   H1244     1.0  0.47534  0.50044  0.53320  1.0000
  H   H1245     1.0  0.41408  0.89961  0.94502  1.0000
  H   H1246     1.0  0.34804  0.60941  0.89943  1.0000
  C   C699      1.0  0.35036  0.89020  0.52970  1.0000
  H   H1247     1.0  0.50575  0.50641  0.61165  1.0000
  C   C700      1.0  0.40033  0.92557  0.98122  1.0000
  C   C701      1.0  0.43925  0.94714  0.96444  1.0000
  H   H1248     1.0  0.36698  0.59837  0.86686  1.0000
  H   H1249     1.0  0.53039  0.51462  0.93715  1.0000
  C   C702      1.0  0.34728  0.63265  0.85648  1.0000
  H   H1250     1.0  0.52681  0.97415  0.56019  1.0000
  H   H1251     1.0  0.55488  0.96746  0.61139  1.0000
  H   H1252     1.0  0.56726  0.52321  0.74879  1.0000
  H   H1253     1.0  0.49594  0.97145  0.65225  1.0000
  H   H1254     1.0  0.41500  0.99005  0.96656  1.0000
  C   C703      1.0  0.58843  0.53779  0.96159  1.0000
  C   C704      1.0  0.40117  0.98300  0.98404  1.0000
  C   C705      1.0  0.63529  0.62139  0.62381  1.0000
  C   C706      1.0  0.51872  0.50364  0.71145  1.0000
  H   H1255     1.0  0.42777  0.95133  0.94275  1.0000
  H   H1256     1.0  0.45305  0.90936  0.95236  1.0000
  C   C707      1.0  0.51002  0.51743  0.73785  1.0000
  C   C708      1.0  0.54654  0.98567  0.60461  1.0000
  C   C709      1.0  0.62250  0.56106  0.98738  1.0000
  H   H1257     1.0  0.61559  0.62008  0.63152  1.0000
  H   H1258     1.0  0.41774  0.51591  0.51938  1.0000
  C   C710      1.0  0.49649  0.50976  0.58818  1.0000
  C   C711      1.0  0.45997  0.92853  0.95468  1.0000
  H   H1259     1.0  0.56951  0.95663  0.55663  1.0000
  C   C712      1.0  0.65615  0.58242  0.95488  1.0000
  H   H1260     1.0  0.45804  0.93442  0.90282  1.0000
  C   C713      1.0  0.49962  0.95179  0.60714  1.0000
  C   C714      1.0  0.48589  0.92918  0.62025  1.0000
  C   C715      1.0  0.54965  0.52140  0.93337  1.0000
  C   C716      1.0  0.42549  0.49747  0.51295  1.0000
  H   H1261     1.0  0.34576  0.54670  0.93036  1.0000
  H   H1262     1.0  0.63992  0.86866  0.90795  1.0000
  C   C717      1.0  0.51104  0.96729  0.63474  1.0000
  H   H1263     1.0  0.52406  0.95447  0.64735  1.0000
  H   H1264     1.0  0.56028  0.50667  0.92076  1.0000
  H   H1265     1.0  0.49089  0.54277  0.55804  1.0000
  C   C718      1.0  0.58722  0.51784  0.74937  1.0000
  C   C719      1.0  0.36009  0.56737  0.79617  1.0000
  Fe  Fe78      1.0  0.43712  0.49531  0.89587  1.0000
  H   H1266     1.0  0.63630  0.61601  0.59812  1.0000
  H   H1267     1.0  0.37734  0.62444  0.89034  1.0000
  C   C720      1.0  0.51537  0.55266  0.59654  1.0000
  H   H1268     1.0  0.39066  0.93535  0.96124  1.0000
  Fe  Fe79      1.0  0.56667  0.49847  0.64828  1.0000
  H   H1269     1.0  0.56124  0.51018  0.98045  1.0000
  H   H1270     1.0  0.48606  0.96275  0.59284  1.0000
  H   H1271     1.0  0.51450  0.94458  0.59132  1.0000
  H   H1272     1.0  0.47048  0.93498  0.63625  1.0000
  H   H1273     1.0  0.47784  0.91841  0.60001  1.0000
  H   H1274     1.0  0.49880  0.91695  0.63393  1.0000
  H   H1275     1.0  0.64231  0.70484  0.52475  1.0000
  S   S159      1.0  0.45775  0.51019  0.94059  1.0000
  H   H1276     1.0  0.47886  0.95523  0.92381  1.0000
  H   H1277     1.0  0.64477  0.73822  0.65206  1.0000
  H   H1278     1.0  0.34863  0.70269  0.80397  1.0000
  H   H1279     1.0  0.64149  0.65311  0.65377  1.0000
  H   H1280     1.0  0.64653  0.60811  0.63830  1.0000
  H   H1281     1.0  0.47496  0.92850  0.97315  1.0000
  C   C721      1.0  0.39534  0.99066  0.74232  1.0000
  H   H1282     1.0  0.43859  0.49968  0.49256  1.0000
  H   H1283     1.0  0.33904  0.67626  0.75538  1.0000
  H   H1284     1.0  0.38546  0.97475  0.97052  1.0000
  C   C722      1.0  0.46531  0.50584  0.64498  1.0000
  H   H1285     1.0  0.33943  0.50697  0.90268  1.0000
  H   H1286     1.0  0.42983  0.51769  0.66526  1.0000
  C   C723      1.0  0.44534  0.50476  0.67096  1.0000
  S   S160      1.0  0.59508  0.98588  0.90729  1.0000
  H   H1287     1.0  0.61191  0.98056  0.98067  1.0000
  H   H1288     1.0  0.54957  0.54103  0.97798  1.0000
  H   H1289     1.0  0.38427  0.86616  0.95485  1.0000
  H   H1290     1.0  0.65041  0.69487  0.63413  1.0000
  H   H1291     1.0  0.59507  0.52220  0.77342  1.0000
  H   H1292     1.0  0.51152  0.94702  0.50165  1.0000
  H   H1293     1.0  0.32891  0.49489  0.74491  1.0000
  Fe  Fe80      1.0  0.55389  0.97905  0.90193  1.0000
  C   C724      1.0  0.64462  0.64791  0.62827  1.0000
  C   C725      1.0  0.48132  0.49790  0.96645  1.0000
  H   H1294     1.0  0.64763  0.70385  0.58278  1.0000
  H   H1295     1.0  0.65580  0.80384  0.85753  1.0000
  H   H1296     1.0  0.64764  0.67260  0.56673  1.0000
  C   C726      1.0  0.33243  0.73216  0.90912  1.0000
  H   H1297     1.0  0.64840  0.97125  0.93266  1.0000
  H   H1298     1.0  0.33509  0.79757  0.51441  1.0000
  H   H1299     1.0  0.51057  0.50372  0.57022  1.0000
  C   C727      1.0  0.54264  0.98578  0.56759  1.0000
  H   H1300     1.0  0.64964  0.52308  0.52435  1.0000
  H   H1301     1.0  0.56245  0.97597  0.66590  1.0000
  H   H1302     1.0  0.45357  0.51022  0.69446  1.0000
  H   H1303     1.0  0.34629  0.70529  0.86025  1.0000
  C   C728      1.0  0.46127  0.50151  0.55274  1.0000
  H   H1304     1.0  0.61235  0.57862  0.98211  1.0000
  H   H1305     1.0  0.34572  0.96922  0.52804  1.0000
  C   C729      1.0  0.35481  0.67217  0.77193  1.0000
  C   C730      1.0  0.33015  0.97284  0.51099  1.0000
  H   H1306     1.0  0.66016  0.82695  0.90356  1.0000
  H   H1307     1.0  0.57191  0.99087  0.72159  1.0000
  H   H1308     1.0  0.66003  0.85628  0.85672  1.0000
  H   H1309     1.0  0.33127  0.65239  0.89704  1.0000
  H   H1310     1.0  0.33261  0.82224  0.56383  1.0000
  H   H1311     1.0  0.58223  0.98775  0.55642  1.0000
  N   N39       1.0  0.52404  0.99099  0.62532  1.0000
  H   H1312     1.0  0.33134  0.62247  0.84637  1.0000
  H   H1313     1.0  0.64754  0.49301  0.50605  1.0000
  C   C731      1.0  0.66050  0.50641  0.51741  1.0000
  H   H1314     1.0  0.48043  0.49313  0.65221  1.0000
  Fe  Fe81      1.0  0.78148  0.33600  0.25438  1.0000
  S   S161      1.0  0.74541  0.34264  0.27991  1.0000
  S   S162      1.0  0.82018  0.35022  0.26930  1.0000
  Fe  Fe82      1.0  0.75594  0.30262  0.20280  1.0000
  S   S163      1.0  0.71805  0.30750  0.22522  1.0000
  S   S164      1.0  0.76756  0.28236  0.15646  1.0000
  Fe  Fe83      1.0  0.72825  0.34794  0.23068  1.0000
  S   S165      1.0  0.70791  0.38457  0.21978  1.0000
  Fe  Fe84      1.0  0.73821  0.30173  0.27278  1.0000
  S   S166      1.0  0.72092  0.27857  0.31340  1.0000
  S   S167      1.0  0.76503  0.34339  0.20551  1.0000
  S   S168      1.0  0.77536  0.29465  0.24997  1.0000
  H   H1315     1.0  0.96732  0.42163  0.31853  1.0000
  S   S169      1.0  0.76015  0.14139  0.45651  1.0000
  H   H1316     1.0  0.81335  0.21620  0.10101  1.0000
  Fe  Fe85      1.0  0.72982  0.17713  0.02664  1.0000
  N   N40       1.0  0.67080  0.16128  0.37360  1.0000
  S   S170      1.0  0.71365  0.20463  0.06320  1.0000
  Fe  Fe86      1.0  0.75961  0.18321  0.45950  1.0000
  S   S171      1.0  0.77267  0.20613  0.41608  1.0000
  H   H1317     1.0  0.86471  0.37188  0.37470  1.0000
  S   S172      1.0  0.80900  0.12716  0.03638  1.0000
  H   H1318     1.0  0.94235  0.99376  0.32084  1.0000
  S   S173      1.0  0.73466  0.13646  0.03767  1.0000
  S   S174      1.0  0.93026  0.01426  0.09786  1.0000
  C   C732      1.0  0.67661  0.09816  0.45189  1.0000
  H   H1319     1.0  0.90919  0.46201  0.20269  1.0000
  S   S175      1.0  0.85234  0.02121  0.07918  1.0000
  H   H1320     1.0  0.85341  0.46611  0.29563  1.0000
  C   C733      1.0  0.81661  0.19796  0.08945  1.0000
  Fe  Fe87      1.0  0.89080  0.46474  0.36544  1.0000
  S   S176      1.0  0.85567  0.44098  0.35779  1.0000
  Fe  Fe88      1.0  0.93769  0.47666  0.40597  1.0000
  H   H1321     1.0  0.78368  0.25353  0.00989  1.0000
  C   C734      1.0  0.73253  0.34638  0.36627  1.0000
  S   S177      1.0  0.93154  0.45564  0.35944  1.0000
  H   H1322     1.0  0.69485  0.13839  0.40350  1.0000
  H   H1323     1.0  0.71023  0.09367  0.42466  1.0000
  H   H1324     1.0  0.70170  0.26892  0.99345  1.0000
  C   C735      1.0  0.66785  0.18375  0.39480  1.0000
  H   H1325     1.0  0.73839  0.36117  0.34934  1.0000
  C   C736      1.0  0.66696  0.20318  0.45024  1.0000
  H   H1326     1.0  0.73988  0.41588  0.12473  1.0000
  Fe  Fe89      1.0  0.93120  0.99452  0.14611  1.0000
  H   H1327     1.0  0.68626  0.16950  0.43846  1.0000
  C   C737      1.0  0.97423  0.99673  0.37043  1.0000
  H   H1328     1.0  0.74317  0.13359  0.39097  1.0000
  C   C738      1.0  0.82080  0.09742  0.04754  1.0000
  C   C739      1.0  0.80667  0.07580  0.04471  1.0000
  C   C740      1.0  0.81679  0.05273  0.05425  1.0000
  C   C741      1.0  0.84110  0.05089  0.06682  1.0000
  C   C742      1.0  0.85526  0.07251  0.06964  1.0000
  C   C743      1.0  0.84514  0.09559  0.06004  1.0000
  H   H1329     1.0  0.78799  0.07683  0.03502  1.0000
  H   H1330     1.0  0.80579  0.03613  0.05156  1.0000
  H   H1331     1.0  0.87396  0.07146  0.07920  1.0000
  H   H1332     1.0  0.74070  0.32568  0.05285  1.0000
  C   C744      1.0  0.82941  0.37628  0.29282  1.0000
  C   C745      1.0  0.85497  0.38096  0.29710  1.0000
  C   C746      1.0  0.86331  0.40082  0.31638  1.0000
  C   C747      1.0  0.84623  0.41640  0.33170  1.0000
  C   C748      1.0  0.82066  0.41164  0.32752  1.0000
  C   C749      1.0  0.81227  0.39182  0.30811  1.0000
  H   H1333     1.0  0.86842  0.36884  0.28585  1.0000
  H   H1334     1.0  0.88291  0.40347  0.32043  1.0000
  H   H1335     1.0  0.80721  0.42339  0.33941  1.0000
  H   H1336     1.0  0.79256  0.38848  0.30519  1.0000
  C   C750      1.0  0.98397  0.47339  0.00249  1.0000
  H   H1337     1.0  0.71953  0.47818  0.43317  1.0000
  C   C751      1.0  0.78633  0.00096  0.10772  1.0000
  C   C752      1.0  0.73530  0.25754  0.34092  1.0000
  C   C753      1.0  0.75984  0.24937  0.33715  1.0000
  C   C754      1.0  0.77076  0.23339  0.36015  1.0000
  C   C755      1.0  0.75726  0.22505  0.38699  1.0000
  C   C756      1.0  0.73250  0.23267  0.39033  1.0000
  C   C757      1.0  0.72164  0.24884  0.36746  1.0000
  H   H1338     1.0  0.77040  0.25538  0.31654  1.0000
  H   H1339     1.0  0.78987  0.22750  0.35719  1.0000
  H   H1340     1.0  0.72192  0.22654  0.41088  1.0000
  H   H1341     1.0  0.70262  0.25493  0.37055  1.0000
  C   C758      1.0  0.75206  0.26083  0.13093  1.0000
  C   C759      1.0  0.72784  0.25266  0.13682  1.0000
  C   C760      1.0  0.71644  0.23547  0.11588  1.0000
  C   C761      1.0  0.72909  0.22608  0.08894  1.0000
  C   C762      1.0  0.75322  0.23445  0.08285  1.0000
  C   C763      1.0  0.76462  0.25168  0.10373  1.0000
  H   H1342     1.0  0.71788  0.25958  0.15752  1.0000
  H   H1343     1.0  0.69767  0.22934  0.12068  1.0000
  H   H1344     1.0  0.76295  0.22789  0.06184  1.0000
  H   H1345     1.0  0.78329  0.25800  0.09878  1.0000
  H   H1346     1.0  0.83431  0.19018  0.09880  1.0000
  C   C764      1.0  0.69137  0.08728  0.42811  1.0000
  C   C765      1.0  0.74474  0.38744  0.03245  1.0000
  H   H1347     1.0  0.97767  0.04413  0.34450  1.0000
  N   N41       1.0  0.91569  0.43855  0.24442  1.0000
  C   C766      1.0  0.87206  0.45913  0.25003  1.0000
  C   C767      1.0  0.89709  0.45153  0.26580  1.0000
  C   C768      1.0  0.93786  0.43172  0.26512  1.0000
  C   C769      1.0  0.90488  0.41514  0.23018  1.0000
  C   C770      1.0  0.89089  0.41746  0.19757  1.0000
  C   C771      1.0  0.99219  0.47214  0.27274  1.0000
  C   C772      1.0  0.93324  0.41262  0.29237  1.0000
  H   H1348     1.0  0.75915  0.02698  0.12717  1.0000
  C   C773      1.0  0.72539  0.44936  0.14533  1.0000
  C   C774      1.0  0.87669  0.39367  0.18986  1.0000
  C   C775      1.0  0.82467  0.99957  0.17021  1.0000
  C   C776      1.0  0.95767  0.40509  0.30867  1.0000
  C   C777      1.0  0.68162  0.06820  0.40855  1.0000
  H   H1349     1.0  0.83830  0.47950  0.26108  1.0000
  H   H1350     1.0  0.89180  0.43968  0.28642  1.0000
  N   N42       1.0  0.69559  0.39195  0.10159  1.0000
  H   H1351     1.0  0.94584  0.44867  0.27634  1.0000
  H   H1352     1.0  0.95289  0.42344  0.25031  1.0000
  H   H1353     1.0  0.91982  0.40114  0.22600  1.0000
  H   H1354     1.0  0.89204  0.40635  0.24781  1.0000
  H   H1355     1.0  0.90428  0.42072  0.17779  1.0000
  H   H1356     1.0  0.87737  0.43291  0.19716  1.0000
  H   H1357     1.0  0.70106  0.37345  0.05596  1.0000
  H   H1358     1.0  0.94529  0.42868  0.19135  1.0000
  H   H1359     1.0  0.92432  0.39551  0.28317  1.0000
  H   H1360     1.0  0.92124  0.42059  0.31119  1.0000
  C   C778      1.0  0.67845  0.39396  0.20417  1.0000
  H   H1361     1.0  0.69307  0.22421  0.99572  1.0000
  H   H1362     1.0  0.74432  0.31092  0.38356  1.0000
  H   H1363     1.0  0.98866  0.46307  0.29544  1.0000
  H   H1364     1.0  0.68298  0.21537  0.44460  1.0000
  H   H1365     1.0  0.86730  0.39550  0.16615  1.0000
  H   H1366     1.0  0.88959  0.37755  0.18891  1.0000
  H   H1367     1.0  0.86224  0.39011  0.20835  1.0000
  H   H1368     1.0  0.87478  0.46973  0.22753  1.0000
  H   H1369     1.0  0.66477  0.10730  0.36521  1.0000
  C   C779      1.0  0.67392  0.41943  0.19929  1.0000
  H   H1370     1.0  0.97014  0.39560  0.29134  1.0000
  H   H1371     1.0  0.73065  0.35435  0.39074  1.0000
  H   H1372     1.0  0.77017  0.32327  0.07345  1.0000
  C   C780      1.0  0.97632  0.00178  0.21331  1.0000
  C   C781      1.0  0.71873  0.16490  0.37985  1.0000
  H   H1373     1.0  0.67744  0.15503  0.32273  1.0000
  S   S178      1.0  0.89661  0.48292  0.41393  1.0000
  H   H1374     1.0  0.68220  0.19793  0.38902  1.0000
  C   C782      1.0  0.98298  0.47537  0.47320  1.0000
  C   C783      1.0  0.74677  0.28208  0.01563  1.0000
  H   H1375     1.0  0.88714  0.46283  0.01060  1.0000
  H   H1376     1.0  0.98497  0.00264  0.31977  1.0000
  H   H1377     1.0  0.78243  0.34876  0.35751  1.0000
  S   S179      1.0  0.95145  0.01292  0.18865  1.0000
  C   C784      1.0  0.82823  0.28050  0.30332  1.0000
  H   H1378     1.0  0.97827  0.01361  0.02267  1.0000
  H   H1379     1.0  0.74235  0.14229  0.34905  1.0000
  C   C785      1.0  0.77767  0.33422  0.37547  1.0000
  C   C786      1.0  0.89305  0.47726  0.99322  1.0000
  C   C787      1.0  0.75541  0.31260  0.06090  1.0000
  Fe  Fe90      1.0  0.88936  0.00416  0.09639  1.0000
  H   H1380     1.0  0.98235  0.00251  0.39393  1.0000
  H   H1381     1.0  0.71407  0.33939  0.35837  1.0000
  C   C788      1.0  0.94700  0.44834  0.19879  1.0000
  C   C789      1.0  0.66875  0.17889  0.43148  1.0000
  C   C790      1.0  0.85666  0.47553  0.27231  1.0000
  C   C791      1.0  0.73567  0.39229  0.06667  1.0000
  H   H1382     1.0  0.85631  0.11215  0.06219  1.0000
  H   H1383     1.0  0.68340  0.18557  0.33553  1.0000
  H   H1384     1.0  0.83652  0.21473  0.04975  1.0000
  S   S180      1.0  0.76784  0.18041  0.00573  1.0000
  C   C792      1.0  0.80259  0.30586  0.34270  1.0000
  C   C793      1.0  0.82501  0.28794  0.33846  1.0000
  H   H1385     1.0  0.68798  0.43271  0.20623  1.0000
  H   H1386     1.0  0.78238  0.28779  0.04109  1.0000
  C   C794      1.0  0.73907  0.48351  0.43841  1.0000
  C   C795      1.0  0.82011  0.20264  0.05354  1.0000
  H   H1387     1.0  0.77380  0.31313  0.01526  1.0000
  H   H1388     1.0  0.98011  0.03652  0.23839  1.0000
  H   H1389     1.0  0.69804  0.13330  0.36193  1.0000
  H   H1390     1.0  0.92998  0.47457  0.23097  1.0000
  H   H1391     1.0  0.82329  0.18489  0.04060  1.0000
  H   H1392     1.0  0.77644  0.34419  0.39881  1.0000
  H   H1393     1.0  0.76972  0.00614  0.37691  1.0000
  C   C796      1.0  0.94989  0.46436  0.16874  1.0000
  H   H1394     1.0  0.80353  0.21207  0.04326  1.0000
  C   C797      1.0  0.70699  0.39066  0.06853  1.0000
  H   H1395     1.0  0.73958  0.36847  0.02454  1.0000
  H   H1396     1.0  0.83911  0.34045  0.34765  1.0000
  C   C798      1.0  0.76646  0.29900  0.03205  1.0000
  H   H1397     1.0  0.82231  0.27061  0.35236  1.0000
  H   H1398     1.0  0.69313  0.06013  0.39004  1.0000
  H   H1399     1.0  0.74243  0.26704  0.03311  1.0000
  H   H1400     1.0  0.93360  0.46212  0.15251  1.0000
  H   H1401     1.0  0.73664  0.40122  0.01548  1.0000
  C   C799      1.0  0.83321  0.34692  0.37174  1.0000
  S   S181      1.0  0.68719  0.12317  0.47631  1.0000
  H   H1402     1.0  0.72070  0.17439  0.40340  1.0000
  C   C800      1.0  0.66799  0.38723  0.09799  1.0000
  H   H1403     1.0  0.75500  0.26849  0.43570  1.0000
  H   H1404     1.0  0.74183  0.45188  0.16123  1.0000
  C   C801      1.0  0.92445  0.45678  0.21932  1.0000
  H   H1405     1.0  0.69983  0.40599  0.05318  1.0000
  H   H1406     1.0  0.76733  0.27932  0.47344  1.0000
  H   H1407     1.0  0.72943  0.29327  0.01358  1.0000
  S   S182      1.0  0.72311  0.18478  0.48552  1.0000
  C   C802      1.0  0.78203  0.29840  0.43159  1.0000
  H   H1408     1.0  0.87039  0.34174  0.39196  1.0000
  H   H1409     1.0  0.90568  0.46841  0.27661  1.0000
  H   H1410     1.0  0.76719  0.31267  0.43252  1.0000
  H   H1411     1.0  0.83504  0.31125  0.39624  1.0000
  H   H1412     1.0  0.83086  0.29713  0.28796  1.0000
  H   H1413     1.0  0.75130  0.31673  0.34212  1.0000
  C   C803      1.0  0.85631  0.35670  0.38903  1.0000
  H   H1414     1.0  0.74183  0.41123  0.07317  1.0000
  C   C804      1.0  0.76395  0.01827  0.10382  1.0000
  H   H1415     1.0  0.86085  0.44230  0.24500  1.0000
  Fe  Fe91      1.0  0.77184  0.13918  0.01355  1.0000
  H   H1416     1.0  0.71806  0.17940  0.36103  1.0000
  H   H1417     1.0  0.78601  0.29608  0.33304  1.0000
  C   C805      1.0  0.74219  0.14949  0.37404  1.0000
  C   C806      1.0  0.98942  0.00125  0.00815  1.0000
  H   H1418     1.0  0.96693  0.45866  0.15560  1.0000
  C   C807      1.0  0.69519  0.14826  0.37997  1.0000
  C   C808      1.0  0.69895  0.41743  0.11620  1.0000
  C   C809      1.0  0.72267  0.42195  0.13683  1.0000
  H   H1419     1.0  0.96446  0.45028  0.21293  1.0000
  S   S183      1.0  0.96133  0.46046  0.44711  1.0000
  H   H1420     1.0  0.79101  0.99371  0.08354  1.0000
  C   C810      1.0  0.75125  0.32501  0.36641  1.0000
  H   H1421     1.0  0.77468  0.28242  0.38458  1.0000
  H   H1422     1.0  0.85134  0.36427  0.41297  1.0000
  H   H1423     1.0  0.80518  0.32189  0.32619  1.0000
  H   H1424     1.0  0.68218  0.34007  0.11366  1.0000
  H   H1425     1.0  0.82026  0.36278  0.36852  1.0000
  C   C811      1.0  0.77207  0.27512  0.44808  1.0000
  H   H1426     1.0  0.72804  0.46065  0.12327  1.0000
  H   H1427     1.0  0.75893  0.16120  0.37756  1.0000
  H   H1428     1.0  0.84264  0.29666  0.34634  1.0000
  H   H1429     1.0  0.74735  0.29923  0.07829  1.0000
  H   H1430     1.0  0.95181  0.48420  0.17546  1.0000
  H   H1431     1.0  0.80545  0.27898  0.39859  1.0000
  H   H1432     1.0  0.82701  0.00519  0.22209  1.0000
  H   H1433     1.0  0.95651  0.00734  0.36842  1.0000
  H   H1434     1.0  0.81175  0.27003  0.29475  1.0000
  H   H1435     1.0  0.81641  0.33385  0.41526  1.0000
  H   H1436     1.0  0.80228  0.01229  0.11572  1.0000
  N   N43       1.0  0.79042  0.17268  0.13013  1.0000
  C   C812      1.0  0.81359  0.16111  0.14431  1.0000
  C   C813      1.0  0.78389  0.19551  0.14928  1.0000
  C   C814      1.0  0.76982  0.15375  0.13118  1.0000
  C   C815      1.0  0.79442  0.18025  0.09565  1.0000
  H   H1437     1.0  0.80929  0.01327  0.16823  1.0000
  C   C816      1.0  0.82551  0.13979  0.12445  1.0000
  C   C817      1.0  0.74359  0.16323  0.12143  1.0000
  C   C818      1.0  0.77606  0.19108  0.18464  1.0000
  C   C819      1.0  0.76902  0.21553  0.20089  1.0000
  H   H1438     1.0  0.73217  0.49195  0.48822  1.0000
  C   C820      1.0  0.84818  0.12895  0.14177  1.0000
  C   C821      1.0  0.72406  0.14298  0.12557  1.0000
  H   H1439     1.0  0.80952  0.15329  0.16847  1.0000
  H   H1440     1.0  0.82810  0.17541  0.14867  1.0000
  H   H1441     1.0  0.79997  0.20843  0.15022  1.0000
  H   H1442     1.0  0.76885  0.20621  0.13716  1.0000
  H   H1443     1.0  0.76857  0.14516  0.15544  1.0000
  H   H1444     1.0  0.77399  0.13813  0.11456  1.0000
  H   H1445     1.0  0.79655  0.16366  0.08015  1.0000
  H   H1446     1.0  0.77763  0.18969  0.08600  1.0000
  C   C822      1.0  0.79001  0.29266  0.39659  1.0000
  H   H1447     1.0  0.97448  0.45632  0.00835  1.0000
  H   H1448     1.0  0.81217  0.12445  0.12047  1.0000
  H   H1449     1.0  0.83186  0.14646  0.10064  1.0000
  H   H1450     1.0  0.74347  0.16873  0.09582  1.0000
  H   H1451     1.0  0.73757  0.17933  0.13601  1.0000
  H   H1452     1.0  0.75970  0.17869  0.18620  1.0000
  H   H1453     1.0  0.79158  0.18271  0.19860  1.0000
  H   H1454     1.0  0.78475  0.22884  0.20014  1.0000
  H   H1455     1.0  0.75266  0.22406  0.18876  1.0000
  H   H1456     1.0  0.76415  0.21212  0.22642  1.0000
  H   H1457     1.0  0.69742  0.37420  0.14798  1.0000
  H   H1458     1.0  0.95379  0.39217  0.32882  1.0000
  H   H1459     1.0  0.79816  0.30504  0.44587  1.0000
  H   H1460     1.0  0.84283  0.12124  0.16551  1.0000
  H   H1461     1.0  0.85622  0.11369  0.12716  1.0000
  H   H1462     1.0  0.86267  0.14336  0.14516  1.0000
  H   H1463     1.0  0.70574  0.15000  0.11699  1.0000
  H   H1464     1.0  0.72899  0.12633  0.11121  1.0000
  H   H1465     1.0  0.72236  0.13771  0.15126  1.0000
  C   C823      1.0  0.70598  0.37230  0.12383  1.0000
  C   C824      1.0  0.70219  0.34503  0.11316  1.0000
  C   C825      1.0  0.71574  0.32719  0.13582  1.0000
  H   H1466     1.0  0.76533  0.38907  0.03165  1.0000
  H   H1467     1.0  0.72617  0.37485  0.12819  1.0000
  H   H1468     1.0  0.74493  0.37851  0.08249  1.0000
  H   H1469     1.0  0.76849  0.03328  0.08653  1.0000
  H   H1470     1.0  0.74980  0.46642  0.44415  1.0000
  H   H1471     1.0  0.72137  0.41151  0.15978  1.0000
  C   C826      1.0  0.82081  0.32582  0.39133  1.0000
  H   H1472     1.0  0.84486  0.26840  0.30086  1.0000
  H   H1473     1.0  0.71229  0.30775  0.12832  1.0000
  H   H1474     1.0  0.73613  0.33049  0.13539  1.0000
  H   H1475     1.0  0.70889  0.32958  0.16076  1.0000
  N   N44       1.0  0.79778  0.31463  0.37656  1.0000
  H   H1476     1.0  0.69788  0.43200  0.09724  1.0000
  H   H1477     1.0  0.70943  0.34188  0.08865  1.0000
  H   H1478     1.0  0.69364  0.01659  0.30270  1.0000
  H   H1479     1.0  0.70866  0.45611  0.15829  1.0000
  H   H1480     1.0  0.78621  0.26003  0.44785  1.0000
  C   C827      1.0  0.67037  0.16981  0.33899  1.0000
  H   H1481     1.0  0.72710  0.00171  0.35679  1.0000
  H   H1482     1.0  0.74762  0.00796  0.09444  1.0000
  H   H1483     1.0  0.66315  0.35739  0.19900  1.0000
  H   H1484     1.0  0.66724  0.19913  0.47643  1.0000
  C   C828      1.0  0.98706  0.01776  0.23625  1.0000
  H   H1485     1.0  0.84705  0.02487  0.19861  1.0000
  H   H1486     1.0  0.66463  0.37003  0.08389  1.0000
  H   H1487     1.0  0.73787  0.23577  0.99571  1.0000
  H   H1488     1.0  0.97919  0.00246  0.12911  1.0000
  H   H1489     1.0  0.83734  0.00194  0.14955  1.0000
  C   C829      1.0  0.67485  0.01014  0.30982  1.0000
  H   H1490     1.0  0.68338  0.42160  0.13289  1.0000
  H   H1491     1.0  0.97826  0.04727  0.13435  1.0000
  H   H1492     1.0  0.98070  0.03957  0.09231  1.0000
  C   C830      1.0  0.83929  0.00588  0.20071  1.0000
  C   C831      1.0  0.99222  0.00632  0.34425  1.0000
  H   H1493     1.0  0.74845  0.00305  0.41000  1.0000
  H   H1494     1.0  0.99306  0.03221  0.47380  1.0000
  Fe  Fe92      1.0  0.72454  0.14288  0.48480  1.0000
  H   H1495     1.0  0.88295  0.48215  0.48742  1.0000
  C   C832      1.0  0.99058  0.03904  0.11580  1.0000
  H   H1496     1.0  0.66600  0.00020  0.28941  1.0000
  H   H1497     1.0  0.66329  0.02664  0.31562  1.0000
  H   H1498     1.0  0.68492  0.00390  0.35938  1.0000
  C   C833      1.0  0.97733  0.49220  0.26317  1.0000
  H   H1499     1.0  0.85501  0.99271  0.20419  1.0000
  C   C834      1.0  0.75684  0.99320  0.38922  1.0000
  C   C835      1.0  0.67652  0.99330  0.33928  1.0000
  H   H1500     1.0  0.74732  0.49220  0.41672  1.0000
  Fe  Fe93      1.0  0.78726  0.33521  0.77213  1.0000
  S   S184      1.0  0.74910  0.34254  0.79193  1.0000
  S   S185      1.0  0.82487  0.34960  0.79025  1.0000
  Fe  Fe94      1.0  0.76628  0.30219  0.71682  1.0000
  S   S186      1.0  0.72684  0.30730  0.73347  1.0000
  S   S187      1.0  0.77955  0.28546  0.66909  1.0000
  Fe  Fe95      1.0  0.73639  0.34758  0.74035  1.0000
  S   S188      1.0  0.71845  0.38281  0.71928  1.0000
  Fe  Fe96      1.0  0.74279  0.30149  0.78369  1.0000
  S   S189      1.0  0.72220  0.27804  0.82124  1.0000
  S   S190      1.0  0.77523  0.34273  0.72153  1.0000
  S   S191      1.0  0.78166  0.29391  0.76629  1.0000
  H   H1501     1.0  0.66203  0.34560  0.63655  1.0000
  S   S192      1.0  0.75671  0.13017  0.96440  1.0000
  C   C836      1.0  0.68517  0.29635  0.64624  1.0000
  Fe  Fe97      1.0  0.74537  0.18240  0.53147  1.0000
  C   C837      1.0  0.66933  0.35067  0.61250  1.0000
  S   S193      1.0  0.73287  0.20252  0.57723  1.0000
  Fe  Fe98      1.0  0.74967  0.17135  0.95827  1.0000
  S   S194      1.0  0.76443  0.19268  0.91448  1.0000
  H   H1502     1.0  0.66194  0.44370  0.66945  1.0000
  H   H1503     1.0  0.66536  0.04998  0.98189  1.0000
  H   H1504     1.0  0.66317  0.27388  0.67868  1.0000
  S   S195      1.0  0.74432  0.14057  0.53277  1.0000
  S   S196      1.0  0.93042  0.01547  0.60613  1.0000
  H   H1505     1.0  0.80927  0.01226  0.64890  1.0000
  Fe  Fe99      1.0  0.88924  0.00731  0.60839  1.0000
  S   S197      1.0  0.85367  0.03086  0.60180  1.0000
  H   H1506     1.0  0.85522  0.44867  0.63288  1.0000
  H   H1507     1.0  0.66704  0.11939  0.93149  1.0000
  Fe  Fe100     1.0  0.88911  0.47470  0.86187  1.0000
  S   S198      1.0  0.85243  0.45387  0.85417  1.0000
  C   C838      1.0  0.70672  0.01792  0.84621  1.0000
  S   S199      1.0  0.95817  0.47065  0.94529  1.0000
  H   H1508     1.0  0.74083  0.24033  0.95391  1.0000
  S   S200      1.0  0.92950  0.46405  0.85627  1.0000
  C   C839      1.0  0.67928  0.28669  0.67986  1.0000
  H   H1509     1.0  0.72701  0.28025  0.60372  1.0000
  H   H1510     1.0  0.80539  0.19818  0.70776  1.0000
  H   H1511     1.0  0.72837  0.14706  0.60509  1.0000
  H   H1512     1.0  0.88780  0.46761  0.75448  1.0000
  C   C840      1.0  0.73082  0.08424  0.90258  1.0000
  H   H1513     1.0  0.82617  0.25253  0.95454  1.0000
  H   H1514     1.0  0.76393  0.30737  0.96491  1.0000
  C   C841      1.0  0.97987  0.00322  0.50525  1.0000
  C   C842      1.0  0.75147  0.29170  0.95870  1.0000
  H   H1515     1.0  0.72932  0.30755  0.89991  1.0000
  C   C843      1.0  0.82645  0.09608  0.53811  1.0000
  C   C844      1.0  0.81005  0.08331  0.55817  1.0000
  C   C845      1.0  0.81877  0.06346  0.57738  1.0000
  C   C846      1.0  0.84386  0.05582  0.57650  1.0000
  C   C847      1.0  0.86022  0.06850  0.55632  1.0000
  C   C848      1.0  0.85156  0.08855  0.53740  1.0000
  H   H1516     1.0  0.79070  0.08882  0.55900  1.0000
  H   H1517     1.0  0.80598  0.05400  0.59313  1.0000
  H   H1518     1.0  0.87957  0.06301  0.55542  1.0000
  H   H1519     1.0  0.80839  0.15734  0.67618  1.0000
  C   C849      1.0  0.83195  0.37810  0.80982  1.0000
  C   C850      1.0  0.85697  0.38382  0.81659  1.0000
  C   C851      1.0  0.86364  0.40682  0.83024  1.0000
  C   C852      1.0  0.84528  0.42435  0.83752  1.0000
  C   C853      1.0  0.82023  0.41849  0.83115  1.0000
  C   C854      1.0  0.81358  0.39556  0.81731  1.0000
  H   H1520     1.0  0.87133  0.37044  0.81095  1.0000
  H   H1521     1.0  0.88295  0.41100  0.83512  1.0000
  H   H1522     1.0  0.80587  0.43187  0.83677  1.0000
  H   H1523     1.0  0.79427  0.39146  0.81230  1.0000
  C   C855      1.0  0.68933  0.39186  0.70222  1.0000
  H   H1524     1.0  0.71023  0.28287  0.53282  1.0000
  H   H1525     1.0  0.72719  0.25774  0.55128  1.0000
  C   C856      1.0  0.73431  0.25414  0.84666  1.0000
  C   C857      1.0  0.75959  0.24783  0.84725  1.0000
  C   C858      1.0  0.76836  0.22900  0.86808  1.0000
  C   C859      1.0  0.75209  0.21620  0.88867  1.0000
  C   C860      1.0  0.72682  0.22245  0.88802  1.0000
  C   C861      1.0  0.71803  0.24134  0.86727  1.0000
  H   H1526     1.0  0.77238  0.25746  0.83164  1.0000
  H   H1527     1.0  0.78794  0.22431  0.86820  1.0000
  H   H1528     1.0  0.71398  0.21238  0.90299  1.0000
  H   H1529     1.0  0.69843  0.24591  0.86693  1.0000
  C   C862      1.0  0.76674  0.26164  0.64458  1.0000
  C   C863      1.0  0.74514  0.24886  0.65302  1.0000
  C   C864      1.0  0.73525  0.23070  0.63223  1.0000
  C   C865      1.0  0.74688  0.22491  0.60290  1.0000
  C   C866      1.0  0.76865  0.23749  0.59462  1.0000
  C   C867      1.0  0.77848  0.25574  0.61535  1.0000
  H   H1530     1.0  0.73597  0.25307  0.67546  1.0000
  H   H1531     1.0  0.71837  0.22112  0.63886  1.0000
  H   H1532     1.0  0.77773  0.23339  0.57208  1.0000
  H   H1533     1.0  0.79522  0.26549  0.60860  1.0000
  H   H1534     1.0  0.89333  0.42632  0.72864  1.0000
  C   C868      1.0  0.68644  0.41642  0.69127  1.0000
  H   H1535     1.0  0.66183  0.38005  0.57766  1.0000
  H   H1536     1.0  0.98959  0.42330  0.91778  1.0000
  H   H1537     1.0  0.91085  0.44905  0.77490  1.0000
  H   H1538     1.0  0.79362  0.27719  0.98282  1.0000
  C   C869      1.0  0.82925  0.00596  0.69259  1.0000
  Fe  Fe101     1.0  0.93390  0.99423  0.65296  1.0000
  H   H1539     1.0  0.88245  0.40988  0.67440  1.0000
  H   H1540     1.0  0.84842  0.13369  0.65488  1.0000
  N   N45       1.0  0.80597  0.15226  0.62437  1.0000
  C   C870      1.0  0.77917  0.15323  0.61348  1.0000
  C   C871      1.0  0.82243  0.15971  0.59669  1.0000
  C   C872      1.0  0.81198  0.12554  0.63244  1.0000
  C   C873      1.0  0.81098  0.16819  0.65364  1.0000
  C   C874      1.0  0.79472  0.19189  0.65775  1.0000
  C   C875      1.0  0.83977  0.11949  0.63917  1.0000
  C   C876      1.0  0.81902  0.18630  0.58342  1.0000
  C   C877      1.0  0.83598  0.19067  0.55455  1.0000
  C   C878      1.0  0.80470  0.20844  0.68462  1.0000
  H   H1541     1.0  0.77705  0.14347  0.59003  1.0000
  H   H1542     1.0  0.77311  0.17250  0.60834  1.0000
  H   H1543     1.0  0.84239  0.15846  0.60360  1.0000
  H   H1544     1.0  0.81987  0.14652  0.57632  1.0000
  H   H1545     1.0  0.80585  0.11311  0.61256  1.0000
  H   H1546     1.0  0.83087  0.17392  0.65418  1.0000
  H   H1547     1.0  0.77534  0.18689  0.66407  1.0000
  H   H1548     1.0  0.79381  0.20315  0.63562  1.0000
  H   H1549     1.0  0.85018  0.11871  0.61613  1.0000
  H   H1550     1.0  0.79961  0.18972  0.57550  1.0000
  H   H1551     1.0  0.82436  0.20012  0.60186  1.0000
  H   H1552     1.0  0.80076  0.44199  0.71598  1.0000
  H   H1553     1.0  0.76122  0.43729  0.74574  1.0000
  H   H1554     1.0  0.85583  0.18941  0.56187  1.0000
  H   H1555     1.0  0.79225  0.22476  0.68762  1.0000
  H   H1556     1.0  0.82357  0.21531  0.67862  1.0000
  H   H1557     1.0  0.72055  0.14026  0.64626  1.0000
  H   H1558     1.0  0.74290  0.34858  0.66507  1.0000
  S   S201      1.0  0.69383  0.09472  0.98464  1.0000
  C   C879      1.0  0.86250  0.34046  0.70703  1.0000
  N   N46       1.0  0.68846  0.03164  0.86716  1.0000
  N   N47       1.0  0.84321  0.40992  0.72022  1.0000
  C   C880      1.0  0.85702  0.38557  0.72290  1.0000
  C   C881      1.0  0.85364  0.42840  0.74407  1.0000
  C   C882      1.0  0.81627  0.40507  0.72856  1.0000
  C   C883      1.0  0.84371  0.42014  0.68647  1.0000
  C   C884      1.0  0.86958  0.42587  0.67223  1.0000
  C   C885      1.0  0.79982  0.42817  0.73562  1.0000
  C   C886      1.0  0.88213  0.42762  0.75075  1.0000
  H   H1559     1.0  0.74775  0.08421  0.91796  1.0000
  H   H1560     1.0  0.70234  0.00860  0.90617  1.0000
  C   C887      1.0  0.77259  0.42076  0.73957  1.0000
  H   H1561     1.0  0.85665  0.37906  0.74828  1.0000
  H   H1562     1.0  0.87702  0.38766  0.71730  1.0000
  H   H1563     1.0  0.66506  0.39072  0.61855  1.0000
  H   H1564     1.0  0.84520  0.42541  0.76815  1.0000
  H   H1565     1.0  0.81501  0.39285  0.75000  1.0000
  H   H1566     1.0  0.80684  0.39467  0.70890  1.0000
  H   H1567     1.0  0.83380  0.40746  0.66971  1.0000
  H   H1568     1.0  0.83311  0.43782  0.68516  1.0000
  S   S202      1.0  0.71092  0.16991  0.97881  1.0000
  H   H1569     1.0  0.67108  0.35669  0.70762  1.0000
  H   H1570     1.0  0.80568  0.43731  0.75830  1.0000
  H   H1571     1.0  0.88673  0.41113  0.76571  1.0000
  S   S203      1.0  0.96039  0.01056  0.69105  1.0000
  H   H1572     1.0  0.77878  0.22313  0.96948  1.0000
  H   H1573     1.0  0.70405  0.06684  0.85193  1.0000
  H   H1574     1.0  0.75854  0.32343  0.90723  1.0000
  C   C888      1.0  0.70820  0.25736  0.97319  1.0000
  C   C889      1.0  0.89071  0.45062  0.76914  1.0000
  H   H1575     1.0  0.90801  0.46934  0.97797  1.0000
  H   H1576     1.0  0.70185  0.42917  0.69338  1.0000
  C   C890      1.0  0.82048  0.99706  0.65959  1.0000
  H   H1577     1.0  0.73855  0.04806  0.88396  1.0000
  Fe  Fe102     1.0  0.77990  0.14205  0.50460  1.0000
  H   H1578     1.0  0.73514  0.09409  0.87983  1.0000
  N   N48       1.0  0.71262  0.32864  0.61589  1.0000
  H   H1579     1.0  0.71595  0.09450  0.91549  1.0000
  H   H1580     1.0  0.77055  0.40686  0.75912  1.0000
  H   H1581     1.0  0.71966  0.04861  0.91958  1.0000
  H   H1582     1.0  0.75161  0.31830  0.61882  1.0000
  H   H1583     1.0  0.86142  0.33453  0.73259  1.0000
  H   H1584     1.0  0.89295  0.47728  0.52862  1.0000
  H   H1585     1.0  0.97680  0.02671  0.89775  1.0000
  H   H1586     1.0  0.69615  0.26460  0.56453  1.0000
  H   H1587     1.0  0.96920  0.02757  0.85556  1.0000
  C   C891      1.0  0.77721  0.35668  0.64045  1.0000
  H   H1588     1.0  0.98122  0.44622  0.50861  1.0000
  H   H1589     1.0  0.82057  0.22010  0.94716  1.0000
  H   H1590     1.0  0.98202  0.00291  0.59388  1.0000
  C   C892      1.0  0.70720  0.31347  0.58619  1.0000
  C   C893      1.0  0.70728  0.31485  0.64679  1.0000
  H   H1591     1.0  0.70511  0.26771  0.95040  1.0000
  H   H1592     1.0  0.72379  0.30378  0.65463  1.0000
  H   H1593     1.0  0.69702  0.22189  0.95268  1.0000
  H   H1594     1.0  0.70880  0.32527  0.56428  1.0000
  C   C894      1.0  0.76874  0.01267  0.57583  1.0000
  H   H1595     1.0  0.74123  0.37298  0.63550  1.0000
  C   C895      1.0  0.78796  0.24057  0.96224  1.0000
  C   C896      1.0  0.86759  0.43236  0.63654  1.0000
  H   H1596     1.0  0.88632  0.43697  0.62711  1.0000
  H   H1597     1.0  0.96680  0.01512  0.51760  1.0000
  C   C897      1.0  0.72437  0.29065  0.58104  1.0000
  H   H1598     1.0  0.82771  0.35942  0.70774  1.0000
  H   H1599     1.0  0.83434  0.09438  0.67970  1.0000
  H   H1600     1.0  0.74297  0.29669  0.57255  1.0000
  H   H1601     1.0  0.87769  0.44224  0.68451  1.0000
  H   H1602     1.0  0.86445  0.09828  0.52202  1.0000
  S   S204      1.0  0.81689  0.12178  0.51398  1.0000
  Fe  Fe103     1.0  0.93628  0.48619  0.90199  1.0000
  S   S205      1.0  0.78190  0.18388  0.50564  1.0000
  C   C898      1.0  0.81599  0.23594  0.96317  1.0000
  H   H1603     1.0  0.66274  0.99707  0.95304  1.0000
  H   H1604     1.0  0.77808  0.28245  0.92092  1.0000
  C   C899      1.0  0.71373  0.27299  0.55583  1.0000
  H   H1605     1.0  0.66968  0.07024  0.82342  1.0000
  H   H1606     1.0  0.68088  0.03161  0.91834  1.0000
  H   H1607     1.0  0.75608  0.30078  0.87568  1.0000
  H   H1608     1.0  0.77666  0.02513  0.55722  1.0000
  H   H1609     1.0  0.84827  0.36888  0.67582  1.0000
  H   H1610     1.0  0.73212  0.17048  0.63585  1.0000
  H   H1611     1.0  0.74511  0.34275  0.59118  1.0000
  H   H1612     1.0  0.84037  0.02314  0.68969  1.0000
  C   C900      1.0  0.76024  0.14134  0.63696  1.0000
  C   C901      1.0  0.73372  0.15036  0.63054  1.0000
  C   C902      1.0  0.84285  0.09422  0.65543  1.0000
  H   H1613     1.0  0.80421  0.00639  0.59795  1.0000
  H   H1614     1.0  0.83406  0.07943  0.64078  1.0000
  C   C903      1.0  0.84720  0.36405  0.70168  1.0000
  C   C904      1.0  0.75769  0.28488  0.92357  1.0000
  H   H1615     1.0  0.80139  0.11950  0.65399  1.0000
  H   H1616     1.0  0.95284  0.99546  0.91093  1.0000
  H   H1617     1.0  0.70441  0.36374  0.59317  1.0000
  C   C905      1.0  0.72280  0.05756  0.89593  1.0000
  H   H1618     1.0  0.86294  0.08974  0.65801  1.0000
  H   H1619     1.0  0.85494  0.32529  0.69188  1.0000
  H   H1620     1.0  0.76045  0.12086  0.63394  1.0000
  H   H1621     1.0  0.76495  0.14547  0.66237  1.0000
  H   H1622     1.0  0.76523  0.41279  0.71685  1.0000
  C   C906      1.0  0.78023  0.26162  0.98559  1.0000
  H   H1623     1.0  0.74806  0.26778  0.91593  1.0000
  C   C907      1.0  0.69906  0.05698  0.87447  1.0000
  H   H1624     1.0  0.78613  0.33879  0.64715  1.0000
  C   C908      1.0  0.98945  0.04122  0.60448  1.0000
  H   H1625     1.0  0.70411  0.32828  0.66673  1.0000
  H   H1626     1.0  0.88226  0.34350  0.70049  1.0000
  C   C909      1.0  0.98394  0.02292  0.87326  1.0000
  H   H1627     1.0  0.68975  0.27999  0.63120  1.0000
  C   C910      1.0  0.74989  0.30551  0.90037  1.0000
  H   H1628     1.0  0.78300  0.37094  0.65817  1.0000
  H   H1629     1.0  0.88038  0.45253  0.79205  1.0000
  C   C911      1.0  0.68484  0.01817  0.89877  1.0000
  C   C912      1.0  0.74887  0.35424  0.64068  1.0000
  C   C913      1.0  0.66921  0.37560  0.69929  1.0000
  C   C914      1.0  0.73996  0.33523  0.61521  1.0000
  H   H1630     1.0  0.72449  0.01482  0.85939  1.0000
  H   H1631     1.0  0.78381  0.36240  0.61632  1.0000
  N   N49       1.0  0.75379  0.27122  0.98332  1.0000
  C   C915      1.0  0.73607  0.25015  0.97649  1.0000
  H   H1632     1.0  0.71193  0.02939  0.82507  1.0000
  H   H1633     1.0  0.90564  0.45854  0.49671  1.0000
  H   H1634     1.0  0.83736  0.99380  0.64513  1.0000
  C   C916      1.0  0.66436  0.05071  0.81866  1.0000
  H   H1635     1.0  0.83237  0.17676  0.53542  1.0000
  H   H1636     1.0  0.83244  0.20943  0.54447  1.0000
  H   H1637     1.0  0.84833  0.44763  0.73700  1.0000
  C   C917      1.0  0.69164  0.23442  0.97257  1.0000
  H   H1638     1.0  0.66802  0.30480  0.63641  1.0000
  H   H1639     1.0  0.67754  0.04254  0.80119  1.0000
  H   H1640     1.0  0.78265  0.24423  0.93706  1.0000
  H   H1641     1.0  0.94060  0.99784  0.85612  1.0000
  C   C918      1.0  0.98966  0.46375  0.50232  1.0000
  C   C919      1.0  0.69804  0.35260  0.61418  1.0000
  C   C920      1.0  0.78895  0.99503  0.58809  1.0000
  C   C921      1.0  0.97904  0.48506  0.97285  1.0000
  H   H1642     1.0  0.86023  0.41637  0.62267  1.0000
  C   C922      1.0  0.66378  0.42476  0.67774  1.0000
  H   H1643     1.0  0.97971  0.04115  0.62799  1.0000
  H   H1644     1.0  0.97267  0.00004  0.81050  1.0000
  H   H1645     1.0  0.68776  0.30675  0.58590  1.0000
  C   C923      1.0  0.66378  0.03557  0.85037  1.0000
  H   H1646     1.0  0.76158  0.02434  0.59576  1.0000
  H   H1647     1.0  0.70161  0.36418  0.63585  1.0000
  H   H1648     1.0  0.67194  0.24005  0.96892  1.0000
  H   H1649     1.0  0.67450  0.30224  0.69622  1.0000
  C   C924      1.0  0.66875  0.08570  0.95911  1.0000
  H   H1650     1.0  0.81313  0.01008  0.70833  1.0000
  C   C925      1.0  0.98182  0.99680  0.71877  1.0000
  H   H1651     1.0  0.75313  0.00216  0.56488  1.0000
  Fe  Fe104     1.0  0.71887  0.12928  0.98799  1.0000
  H   H1652     1.0  0.68471  0.06869  0.88652  1.0000
  H   H1653     1.0  0.69542  0.27627  0.68980  1.0000
  C   C926      1.0  0.66324  0.99924  0.90069  1.0000
  H   H1654     1.0  0.97626  0.04791  0.58575  1.0000
  H   H1655     1.0  0.73239  0.29976  0.95907  1.0000
  H   H1656     1.0  0.66279  0.33696  0.59464  1.0000
  H   H1657     1.0  0.87683  0.48219  0.97784  1.0000
  C   C927      1.0  0.89903  0.47743  0.50315  1.0000
  H   H1658     1.0  0.93568  0.49012  0.51436  1.0000
  H   H1659     1.0  0.71813  0.99362  0.78835  1.0000
  H   H1660     1.0  0.92772  0.00667  0.79883  1.0000
  C   C928      1.0  0.99253  0.99549  0.87026  1.0000
  H   H1661     1.0  0.82220  0.23123  0.98792  1.0000
  H   H1662     1.0  0.67110  0.64074  0.17525  1.0000
  S   S206      1.0  0.75143  0.63560  0.03637  1.0000
  S   S207      1.0  0.67661  0.63251  0.03312  1.0000
  Fe  Fe105     1.0  0.74437  0.67527  0.46040  1.0000
  C   C929      1.0  0.69155  0.96938  0.33214  1.0000
  S   S208      1.0  0.73488  0.69059  0.41030  1.0000
  C   C930      1.0  0.71168  0.56705  0.47665  1.0000
  H   H1663     1.0  0.74110  0.89050  0.33653  1.0000
  Fe  Fe106     1.0  0.75907  0.67646  0.03009  1.0000
  S   S209      1.0  0.77595  0.69696  0.07325  1.0000
  S   S210      1.0  0.73503  0.63466  0.46364  1.0000
  H   H1664     1.0  0.97711  0.96488  0.19396  1.0000
  Fe  Fe107     1.0  0.71842  0.84524  0.24946  1.0000
  S   S211      1.0  0.75269  0.84605  0.28027  1.0000
  S   S212      1.0  0.68963  0.87688  0.24833  1.0000
  Fe  Fe108     1.0  0.74102  0.80371  0.20668  1.0000
  S   S213      1.0  0.77709  0.80280  0.23474  1.0000
  S   S214      1.0  0.73033  0.78385  0.15964  1.0000
  Fe  Fe109     1.0  0.75228  0.80421  0.27861  1.0000
  S   S215      1.0  0.76482  0.78519  0.32557  1.0000
  Fe  Fe110     1.0  0.77483  0.84463  0.23462  1.0000
  S   S216      1.0  0.80505  0.87447  0.23331  1.0000
  S   S217      1.0  0.71606  0.80327  0.25046  1.0000
  S   S218      1.0  0.74069  0.84548  0.20379  1.0000
  C   C931      1.0  0.98248  0.50388  0.23365  1.0000
  H   H1665     1.0  0.82908  0.96024  0.18002  1.0000
  Fe  Fe111     1.0  0.89900  0.95131  0.12165  1.0000
  S   S219      1.0  0.87838  0.91433  0.12478  1.0000
  C   C932      1.0  0.70853  0.92938  0.35012  1.0000
  S   S220      1.0  0.94039  0.95711  0.12555  1.0000
  H   H1666     1.0  0.95746  0.57784  0.02195  1.0000
  S   S221      1.0  0.94335  0.51335  0.38150  1.0000
  Fe  Fe112     1.0  0.90184  0.51861  0.38704  1.0000
  S   S222      1.0  0.88827  0.55742  0.40183  1.0000
  H   H1667     1.0  0.90305  0.57452  0.03044  1.0000
  H   H1668     1.0  0.67205  0.52243  0.47283  1.0000
  H   H1669     1.0  0.97786  0.92500  0.40959  1.0000
  H   H1670     1.0  0.93935  0.57216  0.05744  1.0000
  C   C933      1.0  0.94107  0.54019  0.02476  1.0000
  H   H1671     1.0  0.67370  0.72260  0.20371  1.0000
  H   H1672     1.0  0.72213  0.89629  0.30132  1.0000
  H   H1673     1.0  0.74587  0.97599  0.34499  1.0000
  S   S223      1.0  0.79158  0.59297  0.47888  1.0000
  H   H1674     1.0  0.86560  0.53958  0.99689  1.0000
  H   H1675     1.0  0.88689  0.50683  0.02637  1.0000
  C   C934      1.0  0.82497  0.88540  0.20253  1.0000
  C   C935      1.0  0.82623  0.87408  0.17237  1.0000
  C   C936      1.0  0.84263  0.88330  0.14887  1.0000
  C   C937      1.0  0.85783  0.90392  0.15515  1.0000
  C   C938      1.0  0.85635  0.91545  0.18515  1.0000
  C   C939      1.0  0.84002  0.90619  0.20870  1.0000
  H   H1676     1.0  0.81478  0.85812  0.16744  1.0000
  H   H1677     1.0  0.84361  0.87450  0.12564  1.0000
  H   H1678     1.0  0.86805  0.93123  0.19038  1.0000
  H   H1679     1.0  0.83922  0.91502  0.23200  1.0000
  C   C940      1.0  0.81823  0.58366  0.45649  1.0000
  C   C941      1.0  0.83496  0.60070  0.44346  1.0000
  C   C942      1.0  0.85606  0.59232  0.42648  1.0000
  C   C943      1.0  0.86077  0.56682  0.42230  1.0000
  C   C944      1.0  0.84402  0.54977  0.43529  1.0000
  C   C945      1.0  0.82293  0.55816  0.45230  1.0000
  H   H1680     1.0  0.83200  0.62026  0.44715  1.0000
  H   H1681     1.0  0.86904  0.60567  0.41686  1.0000
  H   H1682     1.0  0.84739  0.53011  0.43238  1.0000
  H   H1683     1.0  0.76778  0.97706  0.39809  1.0000
  C   C946      1.0  0.76178  0.71988  0.09793  1.0000
  C   C947      1.0  0.77163  0.72447  0.12876  1.0000
  C   C948      1.0  0.76196  0.74357  0.14834  1.0000
  C   C949      1.0  0.74244  0.75849  0.13715  1.0000
  C   C950      1.0  0.73235  0.75362  0.10653  1.0000
  C   C951      1.0  0.74193  0.73449  0.08703  1.0000
  H   H1684     1.0  0.78704  0.71335  0.13743  1.0000
  H   H1685     1.0  0.76980  0.74692  0.17191  1.0000
  H   H1686     1.0  0.71722  0.76502  0.09762  1.0000
  H   H1687     1.0  0.73431  0.73139  0.06327  1.0000
  C   C952      1.0  0.74265  0.71776  0.38808  1.0000
  C   C953      1.0  0.73081  0.72203  0.35831  1.0000
  C   C954      1.0  0.73702  0.74268  0.33905  1.0000
  C   C955      1.0  0.75539  0.75926  0.34920  1.0000
  C   C956      1.0  0.76726  0.75495  0.37897  1.0000
  C   C957      1.0  0.76088  0.73444  0.39839  1.0000
  H   H1688     1.0  0.71671  0.70925  0.35005  1.0000
  H   H1689     1.0  0.72773  0.74567  0.31627  1.0000
  H   H1690     1.0  0.78150  0.76765  0.38708  1.0000
  H   H1691     1.0  0.77021  0.73147  0.42114  1.0000
  H   H1692     1.0  0.92379  0.54576  0.45215  1.0000
  C   C958      1.0  0.68291  0.58265  0.04903  1.0000
  H   H1693     1.0  0.91779  0.49378  0.02730  1.0000
  H   H1694     1.0  0.68685  0.54386  0.06088  1.0000
  H   H1695     1.0  0.70138  0.58412  0.03896  1.0000
  H   H1696     1.0  0.66589  0.92432  0.25328  1.0000
  H   H1697     1.0  0.98141  0.91220  0.12086  1.0000
  H   H1698     1.0  0.84260  0.71101  0.42074  1.0000
  H   H1699     1.0  0.85048  0.55795  0.04848  1.0000
  H   H1700     1.0  0.73862  0.53664  0.44261  1.0000
  H   H1701     1.0  0.89529  0.54475  0.04477  1.0000
  H   H1702     1.0  0.66717  0.59554  0.16866  1.0000
  S   S224      1.0  0.72170  0.68488  0.00837  1.0000
  H   H1703     1.0  0.67989  0.68118  0.17588  1.0000
  C   C959      1.0  0.99030  0.92802  0.38877  1.0000
  N   N50       1.0  0.80193  0.96306  0.14182  1.0000
  H   H1704     1.0  0.75693  0.63798  0.15268  1.0000
  H   H1705     1.0  0.81859  0.74797  0.03616  1.0000
  H   H1706     1.0  0.72370  0.63463  0.11157  1.0000
  H   H1707     1.0  0.67954  0.91179  0.39948  1.0000
  C   C960      1.0  0.66394  0.69554  0.08251  1.0000
  H   H1708     1.0  0.80791  0.92435  0.15363  1.0000
  C   C961      1.0  0.95259  0.56371  0.04019  1.0000
  H   H1709     1.0  0.98945  0.50703  0.44298  1.0000
  H   H1710     1.0  0.78187  0.92984  0.12832  1.0000
  H   H1711     1.0  0.79906  0.76098  0.00509  1.0000
  C   C962      1.0  0.95820  0.56577  0.46148  1.0000
  H   H1712     1.0  0.68795  0.55433  0.43612  1.0000
  H   H1713     1.0  0.72689  0.57613  0.46280  1.0000
  H   H1714     1.0  0.81585  0.70646  0.44630  1.0000
  H   H1715     1.0  0.76586  0.96808  0.11889  1.0000
  H   H1716     1.0  0.68107  0.75054  0.18203  1.0000
  H   H1717     1.0  0.70776  0.71655  0.16418  1.0000
  H   H1718     1.0  0.94248  0.94411  0.39110  1.0000
  H   H1719     1.0  0.66868  0.96739  0.39124  1.0000
  S   S225      1.0  0.88973  0.98724  0.14600  1.0000
  S   S226      1.0  0.89745  0.96775  0.07214  1.0000
  H   H1720     1.0  0.70287  0.70241  0.09330  1.0000
  H   H1721     1.0  0.69692  0.67347  0.07541  1.0000
  H   H1722     1.0  0.72748  0.68843  0.13612  1.0000
  C   C963      1.0  0.73183  0.92950  0.32840  1.0000
  H   H1723     1.0  0.67995  0.95801  0.31559  1.0000
  C   C964      1.0  0.73278  0.65285  0.11504  1.0000
  C   C965      1.0  0.71738  0.67046  0.13657  1.0000
  C   C966      1.0  0.93075  0.96282  0.44946  1.0000
  H   H1724     1.0  0.70795  0.97464  0.31767  1.0000
  H   H1725     1.0  0.94789  0.56848  0.41081  1.0000
  H   H1726     1.0  0.92804  0.94243  0.44846  1.0000
  C   C967      1.0  0.83209  0.94888  0.05853  1.0000
  H   H1727     1.0  0.83826  0.95055  0.12638  1.0000
  C   C968      1.0  0.67934  0.63213  0.15355  1.0000
  C   C969      1.0  0.68757  0.56779  0.45614  1.0000
  H   H1728     1.0  0.97917  0.96106  0.32089  1.0000
  H   H1729     1.0  0.81021  0.54477  0.46235  1.0000
  H   H1730     1.0  0.93132  0.97461  0.38520  1.0000
  H   H1731     1.0  0.75467  0.90389  0.30101  1.0000
  N   N51       1.0  0.80069  0.65783  0.36958  1.0000
  C   C970      1.0  0.80806  0.67953  0.39045  1.0000
  C   C971      1.0  0.78418  0.66646  0.34206  1.0000
  C   C972      1.0  0.78555  0.64034  0.39011  1.0000
  C   C973      1.0  0.82294  0.64368  0.35732  1.0000
  C   C974      1.0  0.84230  0.65877  0.33819  1.0000
  C   C975      1.0  0.82653  0.67393  0.41827  1.0000
  C   C976      1.0  0.77564  0.61678  0.37281  1.0000
  C   C977      1.0  0.78928  0.69249  0.32751  1.0000
  C   C978      1.0  0.77383  0.69694  0.29713  1.0000
  C   C979      1.0  0.86587  0.64347  0.33254  1.0000
  C   C980      1.0  0.83295  0.69761  0.43667  1.0000
  C   C981      1.0  0.75662  0.60310  0.39334  1.0000
  H   H1732     1.0  0.79109  0.68822  0.40094  1.0000
  H   H1733     1.0  0.81695  0.69441  0.37621  1.0000
  H   H1734     1.0  0.78469  0.65282  0.32201  1.0000
  H   H1735     1.0  0.76432  0.66728  0.34985  1.0000
  H   H1736     1.0  0.76939  0.65038  0.40071  1.0000
  H   H1737     1.0  0.79651  0.63340  0.41093  1.0000
  H   H1738     1.0  0.83257  0.63400  0.37754  1.0000
  H   H1739     1.0  0.81694  0.62854  0.34093  1.0000
  H   H1740     1.0  0.84789  0.67593  0.35088  1.0000
  H   H1741     1.0  0.83458  0.66368  0.31425  1.0000
  H   H1742     1.0  0.81853  0.66076  0.43567  1.0000
  H   H1743     1.0  0.84420  0.66604  0.40911  1.0000
  H   H1744     1.0  0.79120  0.60368  0.36817  1.0000
  H   H1745     1.0  0.76649  0.62130  0.34961  1.0000
  H   H1746     1.0  0.78405  0.70710  0.34501  1.0000
  H   H1747     1.0  0.80907  0.69515  0.32134  1.0000
  H   H1748     1.0  0.77688  0.71619  0.28843  1.0000
  H   H1749     1.0  0.77937  0.68382  0.27788  1.0000
  H   H1750     1.0  0.75370  0.69473  0.30226  1.0000
  H   H1751     1.0  0.87930  0.65442  0.31815  1.0000
  H   H1752     1.0  0.87486  0.63852  0.35579  1.0000
  H   H1753     1.0  0.86146  0.62619  0.31919  1.0000
  H   H1754     1.0  0.76077  0.95053  0.17912  1.0000
  H   H1755     1.0  0.98343  0.57412  0.07119  1.0000
  H   H1756     1.0  0.82536  0.93892  0.03687  1.0000
  H   H1757     1.0  0.73983  0.61483  0.39681  1.0000
  H   H1758     1.0  0.75091  0.58574  0.38110  1.0000
  H   H1759     1.0  0.76473  0.59818  0.41709  1.0000
  C   C982      1.0  0.67805  0.68996  0.15179  1.0000
  H   H1760     1.0  0.93561  0.94514  0.28333  1.0000
  N   N52       1.0  0.96942  0.96919  0.37033  1.0000
  H   H1761     1.0  0.98274  0.91767  0.36795  1.0000
  C   C983      1.0  0.99405  0.49803  0.46547  1.0000
  H   H1762     1.0  0.71871  0.66402  0.16194  1.0000
  N   N53       1.0  0.80365  0.80246  0.10591  1.0000
  C   C984      1.0  0.80340  0.77920  0.08569  1.0000
  C   C985      1.0  0.80663  0.79594  0.14117  1.0000
  C   C986      1.0  0.77865  0.81500  0.10160  1.0000
  C   C987      1.0  0.82342  0.82045  0.09531  1.0000
  C   C988      1.0  0.85055  0.81082  0.09542  1.0000
  C   C989      1.0  0.80027  0.78285  0.04890  1.0000
  C   C990      1.0  0.77354  0.83787  0.12331  1.0000
  C   C991      1.0  0.82344  0.77336  0.14973  1.0000
  C   C992      1.0  0.82751  0.77122  0.18598  1.0000
  C   C993      1.0  0.86788  0.82903  0.07848  1.0000
  C   C994      1.0  0.80084  0.75794  0.03140  1.0000
  C   C995      1.0  0.74728  0.84795  0.11770  1.0000
  H   H1763     1.0  0.78814  0.76685  0.09387  1.0000
  H   H1764     1.0  0.82064  0.76817  0.08901  1.0000
  H   H1765     1.0  0.81358  0.81226  0.15490  1.0000
  H   H1766     1.0  0.78820  0.79147  0.15195  1.0000
  H   H1767     1.0  0.76338  0.80144  0.10582  1.0000
  H   H1768     1.0  0.77621  0.82168  0.07653  1.0000
  H   H1769     1.0  0.81900  0.82787  0.07097  1.0000
  H   H1770     1.0  0.82353  0.83695  0.11121  1.0000
  H   H1771     1.0  0.85238  0.79274  0.08306  1.0000
  H   H1772     1.0  0.85731  0.80908  0.12056  1.0000
  H   H1773     1.0  0.78218  0.79167  0.04297  1.0000
  H   H1774     1.0  0.81552  0.79436  0.03909  1.0000
  H   H1775     1.0  0.78665  0.85313  0.11794  1.0000
  H   H1776     1.0  0.77521  0.83309  0.14915  1.0000
  H   H1777     1.0  0.81449  0.75590  0.14169  1.0000
  H   H1778     1.0  0.84187  0.77435  0.13821  1.0000
  H   H1779     1.0  0.80954  0.76794  0.19830  1.0000
  H   H1780     1.0  0.84003  0.75531  0.19127  1.0000
  H   H1781     1.0  0.83617  0.78835  0.19568  1.0000
  H   H1782     1.0  0.86743  0.84744  0.09041  1.0000
  H   H1783     1.0  0.88728  0.82193  0.07951  1.0000
  H   H1784     1.0  0.86247  0.83123  0.05283  1.0000
  N   N54       1.0  0.91912  0.54464  0.00279  1.0000
  C   C996      1.0  0.73771  0.90345  0.31618  1.0000
  H   H1785     1.0  0.74462  0.85343  0.09218  1.0000
  H   H1786     1.0  0.73320  0.83376  0.12419  1.0000
  H   H1787     1.0  0.74419  0.86450  0.13302  1.0000
  C   C997      1.0  0.79219  0.93742  0.14934  1.0000
  C   C998      1.0  0.85309  0.56943  0.02659  1.0000
  H   H1788     1.0  0.84546  0.69305  0.45716  1.0000
  H   H1789     1.0  0.78510  0.74612  0.03926  1.0000
  C   C999      1.0  0.68350  0.59335  0.44112  1.0000
  H   H1790     1.0  0.68766  0.72705  0.13234  1.0000
  C   C1000     1.0  0.71778  0.96723  0.38245  1.0000
  H   H1791     1.0  0.77095  0.98728  0.15261  1.0000
  H   H1792     1.0  0.86626  0.49342  0.27664  1.0000
  H   H1793     1.0  0.69901  0.62735  0.15878  1.0000
  C   C1001     1.0  0.75852  0.64803  0.12949  1.0000
  H   H1794     1.0  0.73537  0.66161  0.09123  1.0000
  N   N55       1.0  0.72018  0.54183  0.48825  1.0000
  H   H1795     1.0  0.97581  0.56346  0.47517  1.0000
  H   H1796     1.0  0.96945  0.96105  0.43814  1.0000
  H   H1797     1.0  0.74828  0.93567  0.34238  1.0000
  C   C1002     1.0  0.72648  0.52606  0.45942  1.0000
  C   C1003     1.0  0.73664  0.98478  0.36575  1.0000
  H   H1798     1.0  0.79494  0.95164  0.07736  1.0000
  C   C1004     1.0  0.82165  0.96026  0.11632  1.0000
  C   C1005     1.0  0.98673  0.97560  0.01150  1.0000
  C   C1006     1.0  0.96491  0.56641  0.42586  1.0000
  H   H1799     1.0  0.70966  0.52163  0.44511  1.0000
  C   C1007     1.0  0.67703  0.64975  0.12421  1.0000
  S   S227      1.0  0.95170  0.50301  0.28640  1.0000
  H   H1800     1.0  0.67408  0.59789  0.12647  1.0000
  H   H1801     1.0  0.80040  0.97372  0.19208  1.0000
  H   H1802     1.0  0.83500  0.57052  0.01364  1.0000
  H   H1803     1.0  0.81278  0.92551  0.09144  1.0000
  H   H1804     1.0  0.67935  0.72139  0.04743  1.0000
  N   N56       1.0  0.69060  0.67416  0.12670  1.0000
  H   H1805     1.0  0.94952  0.52692  0.46167  1.0000
  H   H1806     1.0  0.69346  0.91923  0.33717  1.0000
  H   H1807     1.0  0.66996  0.69166  0.03109  1.0000
  C   C1008     1.0  0.78041  0.97930  0.13121  1.0000
  H   H1808     1.0  0.99095  0.55094  0.04180  1.0000
  H   H1809     1.0  0.67128  0.56394  0.47170  1.0000
  H   H1810     1.0  0.93567  0.52804  0.04516  1.0000
  C   C1009     1.0  0.87271  0.55790  0.00468  1.0000
  H   H1811     1.0  0.76856  0.66575  0.13342  1.0000
  C   C1010     1.0  0.99288  0.95607  0.38101  1.0000
  H   H1812     1.0  0.90611  0.58179  0.46833  1.0000
  H   H1813     1.0  0.71378  0.91755  0.37097  1.0000
  H   H1814     1.0  0.76963  0.63653  0.11266  1.0000
  C   C1011     1.0  0.67568  0.94972  0.38070  1.0000
  C   C1012     1.0  0.98548  0.97755  0.21091  1.0000
  H   H1815     1.0  0.95784  0.94007  0.33781  1.0000
  C   C1013     1.0  0.67460  0.55980  0.06151  1.0000
  H   H1816     1.0  0.74735  0.90997  0.15769  1.0000
  C   C1014     1.0  0.68825  0.71677  0.15540  1.0000
  H   H1817     1.0  0.70828  0.97894  0.40080  1.0000
  S   S228      1.0  0.78198  0.67004  0.48391  1.0000
  H   H1818     1.0  0.77350  0.89476  0.17696  1.0000
  H   H1819     1.0  0.85040  0.94095  0.06553  1.0000
  C   C1015     1.0  0.93825  0.96550  0.28529  1.0000
  C   C1016     1.0  0.67309  0.73163  0.17970  1.0000
  H   H1820     1.0  0.95525  0.99080  0.43159  1.0000
  C   C1017     1.0  0.93991  0.54431  0.46889  1.0000
  H   H1821     1.0  0.89634  0.52664  0.48745  1.0000
  S   S229      1.0  0.89362  0.50115  0.33915  1.0000
  C   C1018     1.0  0.77459  0.93523  0.17869  1.0000
  C   C1019     1.0  0.67028  0.88971  0.27864  1.0000
  Fe  Fe113     1.0  0.93811  0.97628  0.07733  1.0000
  H   H1822     1.0  0.85853  0.58852  0.03363  1.0000
  H   H1823     1.0  0.98203  0.92428  0.16145  1.0000
  H   H1824     1.0  0.78565  0.93570  0.20133  1.0000
  C   C1020     1.0  0.76041  0.91069  0.17840  1.0000
  C   C1021     1.0  0.81357  0.94566  0.08591  1.0000
  H   H1825     1.0  0.93450  0.96805  0.47485  1.0000
  H   H1826     1.0  0.97295  0.54268  0.07684  1.0000
  H   H1827     1.0  0.95521  0.97089  0.27183  1.0000
  H   H1828     1.0  0.74951  0.90879  0.20090  1.0000
  H   H1829     1.0  0.97731  0.58239  0.42104  1.0000
  C   C1022     1.0  0.97637  0.55737  0.05867  1.0000
  N   N57       1.0  0.69894  0.95429  0.36124  1.0000
  H   H1830     1.0  0.72854  0.95330  0.39663  1.0000
  Fe  Fe114     1.0  0.71470  0.64371  0.01281  1.0000
  H   H1831     1.0  0.69889  0.59795  0.42446  1.0000
  C   C1023     1.0  0.94810  0.96392  0.39271  1.0000
  S   S230      1.0  0.96603  0.96205  0.03978  1.0000
  C   C1024     1.0  0.68990  0.68645  0.09412  1.0000
  H   H1832     1.0  0.95593  0.52963  0.01212  1.0000
  H   H1833     1.0  0.83435  0.96880  0.05235  1.0000
  H   H1834     1.0  0.72931  0.94149  0.30700  1.0000
  C   C1025     1.0  0.89813  0.55551  0.02225  1.0000
  C   C1026     1.0  0.81394  0.97302  0.17202  1.0000
  C   C1027     1.0  0.94046  0.97332  0.32049  1.0000
  H   H1835     1.0  0.76014  0.50505  0.47200  1.0000
  H   H1836     1.0  0.68310  0.63931  0.10253  1.0000
  H   H1837     1.0  0.95003  0.58406  0.46750  1.0000
  H   H1838     1.0  0.91344  0.97235  0.44150  1.0000
  C   C1028     1.0  0.99341  0.91570  0.14218  1.0000
  H   H1839     1.0  0.92639  0.49434  0.47318  1.0000
  H   H1840     1.0  0.92280  0.96840  0.33264  1.0000
  H   H1841     1.0  0.66576  0.59353  0.42735  1.0000
  H   H1842     1.0  0.99131  0.95460  0.10234  1.0000
  C   C1029     1.0  0.66569  0.60776  0.14724  1.0000
  H   H1843     1.0  0.68232  0.60782  0.45999  1.0000
  C   C1030     1.0  0.95271  0.97052  0.42856  1.0000
  C   C1031     1.0  0.66729  0.60340  0.04933  1.0000
  C   C1032     1.0  0.96273  0.96007  0.33712  1.0000
  H   H1844     1.0  0.67050  0.85772  0.30950  1.0000
  H   H1845     1.0  0.68961  0.49589  0.48530  1.0000
  H   H1846     1.0  0.69498  0.93498  0.42367  1.0000
  H   H1847     1.0  0.97113  0.51941  0.22598  1.0000
  H   H1848     1.0  0.82891  0.97848  0.10854  1.0000
  C   C1033     1.0  0.67823  0.93102  0.40890  1.0000
  C   C1034     1.0  0.66330  0.87628  0.30588  1.0000
  C   C1035     1.0  0.90243  0.50004  0.01133  1.0000
  C   C1036     1.0  0.66524  0.70641  0.04866  1.0000
  C   C1037     1.0  0.74018  0.50132  0.46691  1.0000
  H   H1849     1.0  0.92203  0.97491  0.27394  1.0000
  H   H1850     1.0  0.97489  0.54917  0.41898  1.0000
  Fe  Fe115     1.0  0.93474  0.49302  0.33541  1.0000
  H   H1851     1.0  0.71107  0.80092  0.91700  1.0000
  S   S231      1.0  0.75398  0.63526  0.53783  1.0000
  H   H1852     1.0  0.93927  0.54679  0.57199  1.0000
  Fe  Fe116     1.0  0.73976  0.67675  0.96057  1.0000
  H   H1853     1.0  0.71989  0.69238  0.62853  1.0000
  S   S232      1.0  0.72869  0.69407  0.91201  1.0000
  H   H1854     1.0  0.97683  0.97575  0.92461  1.0000
  C   C1038     1.0  0.67775  0.77971  0.91217  1.0000
  Fe  Fe117     1.0  0.76125  0.67614  0.53076  1.0000
  S   S233      1.0  0.77719  0.69755  0.57373  1.0000
  S   S234      1.0  0.72956  0.63628  0.96338  1.0000
  H   H1855     1.0  0.95663  0.59500  0.94258  1.0000
  Fe  Fe118     1.0  0.71153  0.83727  0.75682  1.0000
  S   S235      1.0  0.74702  0.84354  0.78372  1.0000
  C   C1039     1.0  0.93519  0.95749  0.94976  1.0000
  Fe  Fe119     1.0  0.73797  0.80272  0.70772  1.0000
  S   S236      1.0  0.77532  0.80700  0.73223  1.0000
  S   S237      1.0  0.72814  0.78237  0.66071  1.0000
  Fe  Fe120     1.0  0.75371  0.80246  0.77868  1.0000
  S   S238      1.0  0.76855  0.78309  0.82415  1.0000
  Fe  Fe121     1.0  0.76558  0.84768  0.73544  1.0000
  S   S239      1.0  0.79008  0.88224  0.72976  1.0000
  S   S240      1.0  0.71716  0.79577  0.75383  1.0000
  S   S241      1.0  0.72930  0.84383  0.70869  1.0000
  H   H1856     1.0  0.71103  0.96280  0.80219  1.0000
  S   S242      1.0  0.96268  0.96458  0.54415  1.0000
  Fe  Fe122     1.0  0.89764  0.95341  0.62999  1.0000
  S   S243      1.0  0.87848  0.91567  0.63672  1.0000
  S   S244      1.0  0.89328  0.97129  0.58135  1.0000
  S   S245      1.0  0.93938  0.95740  0.62916  1.0000
  H   H1857     1.0  0.71096  0.66870  0.65592  1.0000
  S   S246      1.0  0.94304  0.52222  0.87604  1.0000
  Fe  Fe123     1.0  0.90157  0.52854  0.88122  1.0000
  S   S247      1.0  0.88710  0.56699  0.89609  1.0000
  H   H1858     1.0  0.94729  0.93861  0.90732  1.0000
  H   H1859     1.0  0.71018  0.84053  0.84178  1.0000
  H   H1860     1.0  0.75075  0.52743  0.51691  1.0000
  C   C1040     1.0  0.92016  0.56669  0.51455  1.0000
  H   H1861     1.0  0.67086  0.68608  0.66555  1.0000
  C   C1041     1.0  0.67272  0.64997  0.62018  1.0000
  H   H1862     1.0  0.69085  0.54490  0.52355  1.0000
  C   C1042     1.0  0.83783  0.93706  0.56016  1.0000
  H   H1863     1.0  0.66967  0.68625  0.51876  1.0000
  H   H1864     1.0  0.71165  0.78114  0.88335  1.0000
  Fe  Fe124     1.0  0.76714  0.63085  0.98652  1.0000
  C   C1043     1.0  0.81536  0.89051  0.70441  1.0000
  C   C1044     1.0  0.82367  0.87524  0.67950  1.0000
  C   C1045     1.0  0.84328  0.88307  0.65942  1.0000
  C   C1046     1.0  0.85470  0.90628  0.66380  1.0000
  C   C1047     1.0  0.84664  0.92138  0.68899  1.0000
  C   C1048     1.0  0.82705  0.91356  0.70907  1.0000
  H   H1865     1.0  0.81507  0.85740  0.67592  1.0000
  H   H1866     1.0  0.84980  0.87105  0.64048  1.0000
  H   H1867     1.0  0.85551  0.93909  0.69300  1.0000
  H   H1868     1.0  0.82091  0.92546  0.72841  1.0000
  C   C1049     1.0  0.81559  0.58802  0.95131  1.0000
  C   C1050     1.0  0.83310  0.60605  0.94307  1.0000
  C   C1051     1.0  0.85483  0.59929  0.92615  1.0000
  C   C1052     1.0  0.85938  0.57447  0.91734  1.0000
  C   C1053     1.0  0.84194  0.55644  0.92578  1.0000
  C   C1054     1.0  0.82024  0.56321  0.94267  1.0000
  H   H1869     1.0  0.83002  0.62512  0.95000  1.0000
  H   H1870     1.0  0.86826  0.61337  0.91991  1.0000
  H   H1871     1.0  0.84512  0.53729  0.91923  1.0000
  C   C1055     1.0  0.74398  0.54545  0.50719  1.0000
  C   C1056     1.0  0.76231  0.72001  0.59850  1.0000
  C   C1057     1.0  0.77273  0.72572  0.62870  1.0000
  C   C1058     1.0  0.76221  0.74420  0.64851  1.0000
  C   C1059     1.0  0.74139  0.75763  0.63803  1.0000
  C   C1060     1.0  0.73090  0.75180  0.60791  1.0000
  C   C1061     1.0  0.74113  0.73302  0.58837  1.0000
  H   H1872     1.0  0.78914  0.71582  0.63678  1.0000
  H   H1873     1.0  0.77044  0.74829  0.67167  1.0000
  H   H1874     1.0  0.71486  0.76212  0.59946  1.0000
  H   H1875     1.0  0.73306  0.72909  0.56508  1.0000
  C   C1062     1.0  0.74003  0.71914  0.88831  1.0000
  C   C1063     1.0  0.72825  0.72446  0.85879  1.0000
  C   C1064     1.0  0.73660  0.74395  0.83890  1.0000
  C   C1065     1.0  0.75686  0.75847  0.84835  1.0000
  C   C1066     1.0  0.76856  0.75320  0.87795  1.0000
  C   C1067     1.0  0.76020  0.73373  0.89786  1.0000
  H   H1876     1.0  0.71255  0.71339  0.85120  1.0000
  H   H1877     1.0  0.72755  0.74753  0.81610  1.0000
  H   H1878     1.0  0.78431  0.76425  0.88547  1.0000
  H   H1879     1.0  0.76943  0.72995  0.92048  1.0000
  C   C1068     1.0  0.67143  0.60050  0.54508  1.0000
  C   C1069     1.0  0.68758  0.58942  0.56726  1.0000
  H   H1880     1.0  0.74878  0.86566  0.85082  1.0000
  C   C1070     1.0  0.67172  0.91632  0.82403  1.0000
  H   H1881     1.0  0.70568  0.59746  0.57159  1.0000
  H   H1882     1.0  0.83404  0.92444  0.53969  1.0000
  C   C1071     1.0  0.68038  0.89544  0.80679  1.0000
  H   H1883     1.0  0.76454  0.64000  0.61402  1.0000
  H   H1884     1.0  0.70011  0.89178  0.80496  1.0000
  S   S248      1.0  0.67952  0.62803  0.52415  1.0000
  H   H1885     1.0  0.78258  0.56739  0.54169  1.0000
  N   N58       1.0  0.78576  0.63699  0.86096  1.0000
  C   C1072     1.0  0.79859  0.61870  0.83905  1.0000
  C   C1073     1.0  0.77013  0.65457  0.84099  1.0000
  C   C1074     1.0  0.80587  0.65216  0.87707  1.0000
  C   C1075     1.0  0.77016  0.62458  0.88655  1.0000
  C   C1076     1.0  0.75790  0.59941  0.87749  1.0000
  C   C1077     1.0  0.81885  0.60231  0.85536  1.0000
  C   C1078     1.0  0.79695  0.67504  0.89641  1.0000
  C   C1079     1.0  0.74871  0.64308  0.82113  1.0000
  C   C1080     1.0  0.73632  0.66265  0.79974  1.0000
  C   C1081     1.0  0.73830  0.59168  0.90193  1.0000
  C   C1082     1.0  0.82560  0.57985  0.83480  1.0000
  C   C1083     1.0  0.81791  0.68567  0.91707  1.0000
  H   H1886     1.0  0.80781  0.62868  0.81888  1.0000
  H   H1887     1.0  0.78507  0.60623  0.82715  1.0000
  H   H1888     1.0  0.76082  0.66853  0.85659  1.0000
  H   H1889     1.0  0.78228  0.66525  0.82432  1.0000
  H   H1890     1.0  0.81945  0.65903  0.85894  1.0000
  H   H1891     1.0  0.81680  0.64039  0.89401  1.0000
  H   H1892     1.0  0.78142  0.62076  0.90857  1.0000
  H   H1893     1.0  0.75525  0.63746  0.89485  1.0000
  H   H1894     1.0  0.77213  0.58448  0.87688  1.0000
  H   H1895     1.0  0.74880  0.59990  0.85365  1.0000
  H   H1896     1.0  0.83611  0.61324  0.85905  1.0000
  H   H1897     1.0  0.81267  0.59554  0.87916  1.0000
  H   H1898     1.0  0.78117  0.67013  0.91220  1.0000
  H   H1899     1.0  0.79085  0.69003  0.87982  1.0000
  H   H1900     1.0  0.75531  0.62798  0.80528  1.0000
  H   H1901     1.0  0.73414  0.63595  0.83750  1.0000
  H   H1902     1.0  0.72874  0.67803  0.81455  1.0000
  H   H1903     1.0  0.74986  0.67031  0.78227  1.0000
  H   H1904     1.0  0.72072  0.65415  0.78614  1.0000
  H   H1905     1.0  0.73051  0.57336  0.89518  1.0000
  H   H1906     1.0  0.74670  0.58998  0.92625  1.0000
  H   H1907     1.0  0.72286  0.60540  0.90252  1.0000
  H   H1908     1.0  0.83234  0.58583  0.81083  1.0000
  H   H1909     1.0  0.84069  0.56911  0.84682  1.0000
  H   H1910     1.0  0.80928  0.56747  0.83184  1.0000
  H   H1911     1.0  0.83383  0.69129  0.90181  1.0000
  H   H1912     1.0  0.81103  0.70228  0.93010  1.0000
  H   H1913     1.0  0.82434  0.67181  0.93506  1.0000
  H   H1914     1.0  0.70219  0.78700  0.81936  1.0000
  N   N59       1.0  0.79714  0.96072  0.63148  1.0000
  H   H1915     1.0  0.79095  0.76683  0.50695  1.0000
  C   C1084     1.0  0.78502  0.93639  0.64038  1.0000
  H   H1916     1.0  0.76857  0.85886  0.88474  1.0000
  C   C1085     1.0  0.66383  0.73701  0.66238  1.0000
  H   H1917     1.0  0.89734  0.52326  0.96886  1.0000
  C   C1086     1.0  0.76378  0.93787  0.66544  1.0000
  H   H1918     1.0  0.79880  0.94211  0.56955  1.0000
  H   H1919     1.0  0.88179  0.59942  0.53110  1.0000
  C   C1087     1.0  0.74899  0.91374  0.66659  1.0000
  H   H1920     1.0  0.81362  0.91766  0.59208  1.0000
  N   N60       1.0  0.68389  0.67577  0.61840  1.0000
  C   C1088     1.0  0.67039  0.69345  0.64051  1.0000
  H   H1921     1.0  0.93492  0.58092  0.51777  1.0000
  H   H1922     1.0  0.79917  0.92318  0.65010  1.0000
  H   H1923     1.0  0.77714  0.92725  0.61865  1.0000
  H   H1924     1.0  0.76482  0.57568  0.57668  1.0000
  H   H1925     1.0  0.69571  0.70180  0.58181  1.0000
  H   H1926     1.0  0.92677  0.58188  0.98551  1.0000
  H   H1927     1.0  0.66285  0.72978  0.68735  1.0000
  S   S249      1.0  0.67304  0.85179  0.77166  1.0000
  H   H1928     1.0  0.75069  0.95323  0.65978  1.0000
  H   H1929     1.0  0.77171  0.94091  0.68983  1.0000
  H   H1930     1.0  0.72574  0.81210  0.84769  1.0000
  H   H1931     1.0  0.93460  0.51460  0.56231  1.0000
  S   S250      1.0  0.77807  0.67101  0.98194  1.0000
  H   H1932     1.0  0.91013  0.56328  0.95819  1.0000
  H   H1933     1.0  0.68500  0.92854  0.83540  1.0000
  H   H1934     1.0  0.73872  0.91092  0.64370  1.0000
  H   H1935     1.0  0.76157  0.89768  0.67092  1.0000
  H   H1936     1.0  0.73533  0.91452  0.68653  1.0000
  N   N61       1.0  0.79605  0.80943  0.60700  1.0000
  C   C1089     1.0  0.76979  0.81920  0.60414  1.0000
  C   C1090     1.0  0.79845  0.78643  0.58652  1.0000
  C   C1091     1.0  0.80016  0.80172  0.64159  1.0000
  C   C1092     1.0  0.81550  0.82847  0.59818  1.0000
  C   C1093     1.0  0.80836  0.84795  0.57216  1.0000
  C   C1094     1.0  0.76244  0.83942  0.62884  1.0000
  C   C1095     1.0  0.82474  0.78759  0.64892  1.0000
  C   C1096     1.0  0.79369  0.78944  0.55002  1.0000
  C   C1097     1.0  0.79348  0.76422  0.53324  1.0000
  C   C1098     1.0  0.83089  0.86336  0.56223  1.0000
  C   C1099     1.0  0.73770  0.85161  0.61977  1.0000
  C   C1100     1.0  0.82923  0.78527  0.68508  1.0000
  H   H1937     1.0  0.75626  0.80375  0.60703  1.0000
  H   H1938     1.0  0.76594  0.82660  0.57978  1.0000
  H   H1939     1.0  0.81750  0.77847  0.58838  1.0000
  H   H1940     1.0  0.78561  0.77184  0.59558  1.0000
  H   H1941     1.0  0.78455  0.78993  0.65005  1.0000
  H   H1942     1.0  0.79999  0.81821  0.65762  1.0000
  H   H1943     1.0  0.82107  0.83947  0.61965  1.0000
  H   H1944     1.0  0.83291  0.81903  0.59036  1.0000
  H   H1945     1.0  0.79420  0.86103  0.58157  1.0000
  H   H1946     1.0  0.80056  0.83929  0.55029  1.0000
  H   H1947     1.0  0.76002  0.83087  0.65288  1.0000
  H   H1948     1.0  0.77690  0.85397  0.63095  1.0000
  H   H1949     1.0  0.84093  0.79725  0.63826  1.0000
  H   H1950     1.0  0.82384  0.76844  0.63919  1.0000
  H   H1951     1.0  0.77555  0.79841  0.54485  1.0000
  H   H1952     1.0  0.80888  0.80040  0.53907  1.0000
  S   S251      1.0  0.89229  0.98898  0.65729  1.0000
  H   H1953     1.0  0.67256  0.82253  0.83051  1.0000
  H   H1954     1.0  0.68103  0.72877  0.61736  1.0000
  Fe  Fe125     1.0  0.93400  0.50080  0.83077  1.0000
  H   H1955     1.0  0.84564  0.85130  0.55196  1.0000
  H   H1956     1.0  0.82524  0.87707  0.54365  1.0000
  H   H1957     1.0  0.73223  0.86502  0.63869  1.0000
  H   H1958     1.0  0.73929  0.86167  0.59658  1.0000
  H   H1959     1.0  0.72284  0.83739  0.61789  1.0000
  H   H1960     1.0  0.84686  0.77504  0.68957  1.0000
  H   H1961     1.0  0.83075  0.80389  0.69635  1.0000
  H   H1962     1.0  0.81382  0.77486  0.69653  1.0000
  H   H1963     1.0  0.73218  0.66465  0.58761  1.0000
  H   H1964     1.0  0.76924  0.54344  0.56677  1.0000
  H   H1965     1.0  0.74160  0.82464  0.90113  1.0000
  H   H1966     1.0  0.72467  0.85348  0.89904  1.0000
  H   H1967     1.0  0.82913  0.97179  0.60285  1.0000
  C   C1101     1.0  0.92545  0.56259  0.97620  1.0000
  C   C1102     1.0  0.66552  0.77847  0.80203  1.0000
  H   H1968     1.0  0.76516  0.96460  0.59962  1.0000
  C   C1103     1.0  0.71050  0.67409  0.63004  1.0000
  N   N62       1.0  0.69192  0.81574  0.87533  1.0000
  H   H1969     1.0  0.70988  0.51849  0.52876  1.0000
  S   S252      1.0  0.72445  0.68383  0.50683  1.0000
  H   H1970     1.0  0.94346  0.99120  0.76645  1.0000
  C   C1104     1.0  0.67492  0.80741  0.84850  1.0000
  H   H1971     1.0  0.71877  0.63792  0.60660  1.0000
  H   H1972     1.0  0.70171  0.76111  0.94738  1.0000
  C   C1105     1.0  0.73366  0.83875  0.88460  1.0000
  C   C1106     1.0  0.71508  0.82665  0.86065  1.0000
  H   H1973     1.0  0.68224  0.63858  0.63897  1.0000
  H   H1974     1.0  0.76575  0.83655  0.85283  1.0000
  N   N63       1.0  0.93121  0.54250  0.50324  1.0000
  C   C1107     1.0  0.75201  0.65149  0.62909  1.0000
  H   H1975     1.0  0.67066  0.57966  0.93629  1.0000
  H   H1976     1.0  0.76666  0.98711  0.63027  1.0000
  H   H1977     1.0  0.67178  0.75601  0.66325  1.0000
  H   H1978     1.0  0.69282  0.55960  0.60134  1.0000
  H   H1979     1.0  0.96681  0.55182  0.52447  1.0000
  H   H1980     1.0  0.77790  0.75268  0.54219  1.0000
  H   H1981     1.0  0.96388  0.52031  0.51414  1.0000
  H   H1982     1.0  0.83447  0.94608  0.62767  1.0000
  C   C1108     1.0  0.98163  0.97819  0.51375  1.0000
  H   H1983     1.0  0.67230  0.76205  0.78851  1.0000
  C   C1109     1.0  0.82005  0.95476  0.61203  1.0000
  C   C1110     1.0  0.95332  0.53623  0.52425  1.0000
  H   H1984     1.0  0.97325  0.95890  0.70736  1.0000
  C   C1111     1.0  0.75547  0.85066  0.86704  1.0000
  C   C1112     1.0  0.74241  0.56309  0.53648  1.0000
  C   C1113     1.0  0.67822  0.83466  0.89529  1.0000
  H   H1985     1.0  0.68177  0.97366  0.93365  1.0000
  H   H1986     1.0  0.97159  0.57172  0.91820  1.0000
  H   H1987     1.0  0.68016  0.99251  0.82208  1.0000
  C   C1114     1.0  0.76627  0.56225  0.55656  1.0000
  C   C1115     1.0  0.66344  0.87920  0.79233  1.0000
  C   C1116     1.0  0.98442  0.97111  0.72209  1.0000
  C   C1117     1.0  0.99144  0.50715  0.96569  1.0000
  H   H1988     1.0  0.67241  0.71744  0.53460  1.0000
  Fe  Fe126     1.0  0.77154  0.62976  0.48917  1.0000
  C   C1118     1.0  0.68014  0.56808  0.58429  1.0000
  H   H1989     1.0  0.69925  0.72109  0.65256  1.0000
  H   H1990     1.0  0.90502  0.61616  0.50830  1.0000
  H   H1991     1.0  0.85491  0.93047  0.57267  1.0000
  H   H1992     1.0  0.67593  0.63974  0.59729  1.0000
  Fe  Fe127     1.0  0.93474  0.97810  0.58234  1.0000
  C   C1119     1.0  0.72759  0.65614  0.61111  1.0000
  H   H1993     1.0  0.72683  0.55777  0.55233  1.0000
  C   C1120     1.0  0.71714  0.98154  0.80995  1.0000
  H   H1994     1.0  0.96500  0.51252  0.71453  1.0000
  H   H1995     1.0  0.68419  0.76751  0.84524  1.0000
  S   S253      1.0  0.89310  0.51024  0.83403  1.0000
  C   C1121     1.0  0.94952  0.55681  0.95716  1.0000
  H   H1996     1.0  0.97720  0.91891  0.60829  1.0000
  H   H1997     1.0  0.95161  0.95159  0.96415  1.0000
  C   C1122     1.0  0.70087  0.53021  0.50992  1.0000
  H   H1998     1.0  0.94798  0.53866  0.94491  1.0000
  H   H1999     1.0  0.81545  0.95999  0.67767  1.0000
  H   H2000     1.0  0.73986  0.58254  0.52849  1.0000
  C   C1123     1.0  0.97769  0.49801  0.76003  1.0000
  H   H2001     1.0  0.91187  0.56436  0.53881  1.0000
  C   C1124     1.0  0.68408  0.68488  0.58411  1.0000
  C   C1125     1.0  0.91141  0.52279  0.50522  1.0000
  H   H2002     1.0  0.96865  0.93728  0.86043  1.0000
  H   H2003     1.0  0.67174  0.74687  0.94139  1.0000
  C   C1126     1.0  0.81581  0.93698  0.58321  1.0000
  H   H2004     1.0  0.81127  0.75415  0.53743  1.0000
  H   H2005     1.0  0.80691  0.54906  0.94907  1.0000
  C   C1127     1.0  0.94758  0.53042  0.55998  1.0000
  H   H2006     1.0  0.69794  0.97878  0.85455  1.0000
  C   C1128     1.0  0.95433  0.57644  0.93146  1.0000
  H   H2007     1.0  0.76156  0.66927  0.63433  1.0000
  H   H2008     1.0  0.74853  0.64151  0.65198  1.0000
  H   H2009     1.0  0.75900  0.55242  0.49120  1.0000
  H   H2010     1.0  0.78817  0.97857  0.67676  1.0000
  H   H2011     1.0  0.84103  0.95600  0.55050  1.0000
  H   H2012     1.0  0.66827  0.79135  0.93042  1.0000
  C   C1129     1.0  0.98341  0.95119  0.86549  1.0000
  C   C1130     1.0  0.69943  0.79432  0.89663  1.0000
  H   H2013     1.0  0.90214  0.52314  0.52907  1.0000
  Fe  Fe128     1.0  0.71822  0.64262  0.51170  1.0000
  H   H2014     1.0  0.97969  0.50640  0.56836  1.0000
  H   H2015     1.0  0.83860  0.87362  0.58314  1.0000
  C   C1131     1.0  0.98015  0.50342  0.72705  1.0000
  H   H2016     1.0  0.93873  0.57714  0.91391  1.0000
  C   C1132     1.0  0.77847  0.97646  0.61319  1.0000
  S   S254      1.0  0.95015  0.50762  0.78034  1.0000
  H   H2017     1.0  0.68868  0.83885  0.91776  1.0000
  C   C1133     1.0  0.68100  0.51340  0.49376  1.0000
  H   H2018     1.0  0.69324  0.67099  0.56827  1.0000
  C   C1134     1.0  0.80477  0.97324  0.66245  1.0000
  C   C1135     1.0  0.66419  0.98447  0.93203  1.0000
  C   C1136     1.0  0.68039  0.72044  0.64170  1.0000
  C   C1137     1.0  0.94141  0.95762  0.91395  1.0000
  S   S255      1.0  0.78798  0.59514  0.97303  1.0000
  H   H2019     1.0  0.92779  0.51193  0.97486  1.0000
  C   C1138     1.0  0.68346  0.78416  0.82961  1.0000
  H   H2020     1.0  0.96700  0.52030  0.60403  1.0000
  H   H2021     1.0  0.79644  0.98496  0.56698  1.0000
  H   H2022     1.0  0.66372  0.77380  0.89420  1.0000
  C   C1139     1.0  0.68734  0.75639  0.92914  1.0000
  H   H2023     1.0  0.68903  0.86923  0.87030  1.0000
  H   H2024     1.0  0.70774  0.57955  0.49724  1.0000
  H   H2025     1.0  0.84125  0.99170  0.70422  1.0000
  H   H2026     1.0  0.99072  0.57002  0.80602  1.0000
  H   H2027     1.0  0.99036  0.93596  0.91408  1.0000
  C   C1140     1.0  0.97135  0.52360  0.57832  1.0000
  H   H2028     1.0  0.91986  0.94423  0.95444  1.0000
  H   H2029     1.0  0.69547  0.74333  0.91143  1.0000
  H   H2030     1.0  0.66543  0.58865  0.97738  1.0000
  H   H2031     1.0  0.66361  0.98596  0.88060  1.0000
  H   H2032     1.0  0.87436  0.56999  0.98326  1.0000
  H   H2033     1.0  0.98525  0.53877  0.57681  1.0000
  H   H2034     1.0  0.99146  0.96332  0.60316  1.0000
  H   H2035     1.0  0.98824  0.51612  0.94278  1.0000
  H   H2036     1.0  0.96610  0.55643  0.97308  1.0000
  C   C1141     1.0  0.93724  0.98922  0.79173  1.0000
  H   H2037     1.0  0.73593  0.97986  0.82095  1.0000
  H   H2038     1.0  0.98260  0.92105  0.65128  1.0000
  C   C1142     1.0  0.67195  0.85950  0.87812  1.0000
  C   C1143     1.0  0.92017  0.49592  0.49840  1.0000
  H   H2039     1.0  0.92404  0.96204  0.90056  1.0000
  H   H2040     1.0  0.96901  0.96721  0.80468  1.0000
  H   H2041     1.0  0.93796  0.96571  0.84934  1.0000
  C   C1144     1.0  0.99124  0.91660  0.62776  1.0000
  H   H2042     1.0  0.66431  0.79443  0.78516  1.0000
  N   N64       1.0  0.97226  0.97627  0.87281  1.0000
  C   C1145     1.0  0.69856  0.99200  0.83415  1.0000
  C   C1146     1.0  0.96169  0.97717  0.90632  1.0000
  H   H2043     1.0  0.66846  0.49775  0.53943  1.0000
  H   H2044     1.0  0.92918  0.97620  0.95785  1.0000
  C   C1147     1.0  0.95158  0.98121  0.84902  1.0000
  C   C1148     1.0  0.91176  0.52028  0.98776  1.0000
  H   H2045     1.0  0.66918  0.88143  0.92203  1.0000
  C   C1149     1.0  0.88977  0.60236  0.50682  1.0000
  S   S256      1.0  0.89541  0.49376  0.90944  1.0000
  H   H2046     1.0  0.92387  0.97359  0.79289  1.0000
  C   C1150     1.0  0.95970  0.98427  0.81348  1.0000
  H   H2047     1.0  0.87491  0.60999  0.49102  1.0000
  H   H2048     1.0  0.88322  0.56519  0.49111  1.0000
  C   C1151     1.0  0.89933  0.57791  0.49295  1.0000
  C   C1152     1.0  0.66098  0.70032  0.53467  1.0000
