data_image0
_chemical_formula_structural       HFeSCFeSHFeSFeS3HC5H5C3HC2H2CH2S3C2H2SC2HCHCH2C4H2CHCH7C3H2NHC2H6C2H6SCSH2CHCH2SCHC2H7FeSHSFeSFeCS2FeS2FeSFeCFeS3HCSH3C6H4C6H4C3SCH3CHCH3CHCH4CH2CH4CHNHCH2CH2CH4SH3CH2CHCH3CSCH4CH2FeH7CH3CHCHCHNH2CHCHC2H3CHCSH2FeCHNHSFeHCFeS2H2FeHS2CH2CH2CH3C8H5CHCH2CH4CH2CHC2H2C2H6CH3NH7C4H2CFeSH3CH3C2HCH7C2H13SFeS2FeHFeSCSHC2HC3H4CNH4CH3CNC12H17C2H4CH4SH3CHCHFeH3CHCH2CH2C2H2CH5C2SHFeS2FeS2Fe2S2CHCH2CH3CH2C6H6CHC2H4C2HCHC2HCHNH2CHC2H4CH3NHCH4CHCH2CH4C2HCH3C3H7CSH2CH9C2H6CHCSH3CHCHSH2C3H3C2SNC3H5CH3C3HC2H3CH4CNCH4CH2CH2SCH3CH2CHC3H5C2H2CH2C2HCSH2CH4SFeS2FeH2S2H2C7H6CHC2HCH2CHCHSCH2C2H2C2H2CH4CHCHCHC2NHC2H4C2HCH7NCHCHCH2CNCH2CH4CH5CH2CHCH5CH2SH2FeS2H2FeCS2H3C6H5FeCHCH2C2H3C2H3C2FeH5NH2CH3C2H2CH5CHC2HCH2CH4CH5CHC2H2SH2NHCH4CHCH2SHC2HC2H2FeH2FeSHFeS2FeSFeS3H2CH2C2HC2H2C3H2C7H3CH4SCH3C2SCH2NH4CHCH2C2H3C2HCH2CH4CH2CH3NH4CH2CHSCHCHC2HC2H2CH2CH2C2HSFeSFeHFeSHSFeS2CSFeSFeS3HC7H4C10H4C4H4SH2CHCHCH4CH2C2H5C2FeCH2NC8H2CH17CH5CNH5CH4NH3CH2SHCH2CHC2H3FeCHC2H2SH10SHFeS2H2FeCSHC8H4CFeHCH6CSH2CNC6H3FeH11C2HCH4C2HCHC2H5C2HCH2CH2CH2CH3CHNH4NHCH8CH2CH6C3HCH3
_chemical_formula_sum              "H768 Fe48 S96 C432 N24"
_cell_length_a       35.6402
_cell_length_b       35.9133
_cell_length_c       32.0297
_cell_angle_alpha    89.8977
_cell_angle_beta     89.9189
_cell_angle_gamma    120.144

_space_group_name_H-M_alt    "P 1"
_space_group_IT_number       1

loop_
  _space_group_symop_operation_xyz
  'x, y, z'

loop_
  _atom_site_type_symbol
  _atom_site_label
  _atom_site_symmetry_multiplicity
  _atom_site_fract_x
  _atom_site_fract_y
  _atom_site_fract_z
  _atom_site_occupancy
  H   H1        1.0  0.42180  0.03540  0.13980  1.0000
  Fe  Fe1       1.0  0.12861  0.38311  0.06727  1.0000
  S   S1        1.0  0.09670  0.32468  0.10861  1.0000
  C   C1        1.0  0.37820  0.14252  0.05748  1.0000
  Fe  Fe2       1.0  0.06486  0.41369  0.09215  1.0000
  S   S2        1.0  0.02885  0.35756  0.13620  1.0000
  H   H2        1.0  0.37546  0.03804  0.01161  1.0000
  Fe  Fe3       1.0  0.09444  0.36875  0.15724  1.0000
  S   S3        1.0  0.11008  0.37223  0.22735  1.0000
  Fe  Fe4       1.0  0.03410  0.31834  0.08430  1.0000
  S   S4        1.0  0.12983  0.42781  0.11707  1.0000
  S   S5        1.0  0.06657  0.37377  0.03904  1.0000
  S   S6        1.0  0.27419  0.02137  0.04091  1.0000
  H   H3        1.0  0.45705  0.13259  0.07183  1.0000
  C   C2        1.0  0.21662  0.36325  0.30200  1.0000
  C   C3        1.0  0.21097  0.35332  0.25911  1.0000
  C   C4        1.0  0.17859  0.35574  0.23581  1.0000
  C   C5        1.0  0.15153  0.36843  0.25506  1.0000
  C   C6        1.0  0.15694  0.37796  0.29806  1.0000
  H   H4        1.0  0.36503  0.43995  0.14837  1.0000
  H   H5        1.0  0.23163  0.34347  0.24382  1.0000
  H   H6        1.0  0.17414  0.34730  0.20310  1.0000
  H   H7        1.0  0.13611  0.38765  0.31328  1.0000
  H   H8        1.0  0.32301  0.32411  0.11541  1.0000
  C   C7        1.0  0.34079  0.40500  0.14610  1.0000
  C   C8        1.0  0.19861  0.29818  0.00838  1.0000
  C   C9        1.0  0.31061  0.07785  0.03914  1.0000
  H   H9        1.0  0.36047  0.38915  0.14170  1.0000
  C   C10       1.0  0.21500  0.18958  0.32480  1.0000
  C   C11       1.0  0.29994  0.10348  0.01426  1.0000
  H   H10       1.0  0.22763  0.44960  0.11713  1.0000
  H   H11       1.0  0.31865  0.40251  0.04228  1.0000
  C   C12       1.0  0.29708  0.31955  0.09342  1.0000
  H   H12       1.0  0.19393  0.11498  0.27906  1.0000
  H   H13       1.0  0.16149  0.22388  0.33831  1.0000
  S   S7        1.0  0.05098  0.46949  0.08812  1.0000
  S   S8        1.0  0.98070  0.25301  0.06186  1.0000
  S   S9        1.0  0.40520  0.22421  0.02736  1.0000
  C   C13       1.0  0.33957  0.41173  0.07039  1.0000
  C   C14       1.0  0.00450  0.45690  0.01437  1.0000
  H   H14       1.0  0.26248  0.16803  0.31349  1.0000
  H   H15       1.0  0.24825  0.26306  0.12740  1.0000
  S   S10       1.0  0.25829  0.35991  0.32969  1.0000
  C   C15       1.0  0.28840  0.42245  0.11263  1.0000
  C   C16       1.0  0.18922  0.37541  0.32141  1.0000
  H   H16       1.0  0.32091  0.31785  0.28130  1.0000
  C   C17       1.0  0.33695  0.32169  0.31197  1.0000
  H   H17       1.0  0.17903  0.26394  0.01423  1.0000
  C   C18       1.0  0.26156  0.27218  0.09527  1.0000
  H   H18       1.0  0.31022  0.32579  0.06113  1.0000
  H   H19       1.0  0.31783  0.25521  0.31834  1.0000
  C   C19       1.0  0.32839  0.14819  0.01051  1.0000
  C   C20       1.0  0.36784  0.16802  0.03197  1.0000
  C   C21       1.0  0.43719  0.07012  0.13177  1.0000
  C   C22       1.0  0.38992  0.47322  0.02260  1.0000
  H   H20       1.0  0.40780  0.15775  0.07536  1.0000
  H   H21       1.0  0.23839  0.14035  0.24261  1.0000
  C   C23       1.0  0.24406  0.18018  0.29588  1.0000
  H   H22       1.0  0.27528  0.25166  0.08589  1.0000
  C   C24       1.0  0.31854  0.39203  0.18942  1.0000
  H   H23       1.0  0.25605  0.34551  0.07804  1.0000
  H   H24       1.0  0.28224  0.43132  0.08099  1.0000
  H   H25       1.0  0.25794  0.33608  0.13185  1.0000
  H   H26       1.0  0.23488  0.26584  0.07334  1.0000
  H   H27       1.0  0.19665  0.41572  0.16037  1.0000
  H   H28       1.0  0.35890  0.39531  0.06732  1.0000
  H   H29       1.0  0.29294  0.35763  0.19047  1.0000
  C   C25       1.0  0.27875  0.34954  0.10381  1.0000
  C   C26       1.0  0.21679  0.14594  0.26351  1.0000
  C   C27       1.0  0.37314  0.46067  0.06732  1.0000
  H   H30       1.0  0.35838  0.07826  0.08021  1.0000
  H   H31       1.0  0.25195  0.27188  0.31768  1.0000
  N   N1        1.0  0.31150  0.39682  0.10913  1.0000
  H   H32       1.0  0.21837  0.37600  0.11298  1.0000
  C   C28       1.0  0.35002  0.09759  0.06071  1.0000
  C   C29       1.0  0.24322  0.40017  0.13434  1.0000
  H   H33       1.0  0.00973  0.43026  0.00814  1.0000
  H   H34       1.0  0.37142  0.33132  0.30645  1.0000
  H   H35       1.0  0.15217  0.31267  0.03644  1.0000
  H   H36       1.0  0.33604  0.34781  0.32962  1.0000
  H   H37       1.0  0.19955  0.20278  0.30397  1.0000
  H   H38       1.0  0.30945  0.45353  0.12887  1.0000
  C   C30       1.0  0.31432  0.27942  0.33645  1.0000
  C   C31       1.0  0.35124  0.39914  0.22371  1.0000
  H   H39       1.0  0.26675  0.20963  0.27827  1.0000
  H   H40       1.0  0.19811  0.15662  0.24404  1.0000
  H   H41       1.0  0.36540  0.37810  0.21876  1.0000
  H   H42       1.0  0.37771  0.43334  0.22435  1.0000
  H   H43       1.0  0.24266  0.38318  0.16331  1.0000
  H   H44       1.0  0.31835  0.97937  0.28180  1.0000
  S   S11       1.0  0.19061  0.40602  0.02960  1.0000
  C   C32       1.0  0.45101  0.99093  0.02500  1.0000
  S   S12       1.0  0.37674  0.31900  0.01055  1.0000
  H   H45       1.0  0.41117  0.07828  0.12806  1.0000
  H   H46       1.0  0.25222  0.45670  0.16825  1.0000
  C   C33       1.0  0.18330  0.32576  0.02101  1.0000
  H   H47       1.0  0.44069  0.05814  0.06682  1.0000
  C   C34       1.0  0.22926  0.43274  0.14558  1.0000
  H   H48       1.0  0.18769  0.15827  0.33593  1.0000
  H   H49       1.0  0.45864  0.08898  0.15800  1.0000
  S   S13       1.0  0.31902  0.97592  0.13404  1.0000
  C   C35       1.0  0.46333  0.07907  0.09142  1.0000
  H   H50       1.0  0.41857  0.98236  0.01544  1.0000
  C   C36       1.0  0.20821  0.37004  0.01349  1.0000
  C   C37       1.0  0.45778  0.98060  0.06541  1.0000
  H   H51       1.0  0.30434  0.41243  0.19741  1.0000
  H   H52       1.0  0.40140  0.46868  0.08772  1.0000
  H   H53       1.0  0.33460  0.39124  0.25455  1.0000
  H   H54       1.0  0.14593  0.46940  0.00788  1.0000
  H   H55       1.0  0.40136  0.45173  0.01031  1.0000
  H   H56       1.0  0.96663  0.39821  0.13809  1.0000
  H   H57       1.0  0.96549  0.38737  0.08306  1.0000
  Fe  Fe5       1.0  0.31223  0.03117  0.58325  1.0000
  S   S14       1.0  0.37168  0.06338  0.54242  1.0000
  H   H58       1.0  0.21753  0.16322  0.43636  1.0000
  S   S15       1.0  0.42052  0.12829  0.62222  1.0000
  Fe  Fe6       1.0  0.37904  0.12543  0.56762  1.0000
  S   S16       1.0  0.39673  0.18417  0.52677  1.0000
  Fe  Fe7       1.0  0.40786  0.06289  0.59991  1.0000
  C   C38       1.0  0.03241  0.20714  0.43681  1.0000
  S   S17       1.0  0.31727  0.09327  0.60422  1.0000
  S   S18       1.0  0.34737  0.02718  0.63976  1.0000
  Fe  Fe8       1.0  0.28413  0.32169  0.47473  1.0000
  S   S19       1.0  0.30768  0.37841  0.51796  1.0000
  S   S20       1.0  0.26713  0.25500  0.49722  1.0000
  Fe  Fe9       1.0  0.27476  0.37017  0.39962  1.0000
  S   S21       1.0  0.29845  0.43081  0.43716  1.0000
  Fe  Fe10      1.0  0.34949  0.41774  0.46393  1.0000
  C   C39       1.0  0.43874  0.37644  0.39703  1.0000
  Fe  Fe11      1.0  0.25491  0.38685  0.48837  1.0000
  S   S22       1.0  0.21192  0.40467  0.52593  1.0000
  S   S23       1.0  0.32892  0.35984  0.42250  1.0000
  S   S24       1.0  0.22841  0.32742  0.44913  1.0000
  H   H59       1.0  0.43703  0.32564  0.46074  1.0000
  C   C40       1.0  0.97668  0.45527  0.53098  1.0000
  S   S25       1.0  0.01507  0.27176  0.57348  1.0000
  H   H60       1.0  0.40276  0.25220  0.47550  1.0000
  H   H61       1.0  0.42112  0.38682  0.45780  1.0000
  H   H62       1.0  0.19679  0.27385  0.36390  1.0000
  C   C41       1.0  0.06971  0.30936  0.56071  1.0000
  C   C42       1.0  0.09361  0.29552  0.53694  1.0000
  C   C43       1.0  0.13730  0.32416  0.52647  1.0000
  C   C44       1.0  0.15764  0.36693  0.53994  1.0000
  C   C45       1.0  0.13378  0.38070  0.56391  1.0000
  C   C46       1.0  0.08996  0.35212  0.57413  1.0000
  H   H63       1.0  0.07834  0.26238  0.52684  1.0000
  H   H64       1.0  0.15527  0.31307  0.50818  1.0000
  H   H65       1.0  0.14937  0.41362  0.57478  1.0000
  H   H66       1.0  0.07205  0.36293  0.59294  1.0000
  C   C47       1.0  0.35970  0.20262  0.51785  1.0000
  C   C48       1.0  0.31877  0.18308  0.53673  1.0000
  C   C49       1.0  0.29101  0.19979  0.53032  1.0000
  C   C50       1.0  0.30407  0.23655  0.50549  1.0000
  C   C51       1.0  0.34475  0.25589  0.48609  1.0000
  C   C52       1.0  0.37209  0.23846  0.49178  1.0000
  H   H67       1.0  0.30828  0.15487  0.55595  1.0000
  H   H68       1.0  0.25917  0.18405  0.54466  1.0000
  H   H69       1.0  0.35448  0.28337  0.46581  1.0000
  H   H70       1.0  0.37956  0.27854  0.67041  1.0000
  C   C53       1.0  0.24035  0.25763  0.61715  1.0000
  C   C54       1.0  0.10363  0.32863  0.41459  1.0000
  C   C55       1.0  0.26523  0.14448  0.42571  1.0000
  S   S26       1.0  0.96931  0.33064  0.65321  1.0000
  C   C56       1.0  0.29936  0.24343  0.64250  1.0000
  H   H71       1.0  0.41133  0.34282  0.39461  1.0000
  H   H72       1.0  0.13681  0.39373  0.39284  1.0000
  H   H73       1.0  0.04127  0.40942  0.43167  1.0000
  C   C57       1.0  0.45023  0.38909  0.44276  1.0000
  H   H74       1.0  0.45002  0.30108  0.52507  1.0000
  C   C58       1.0  0.10557  0.37177  0.40841  1.0000
  H   H75       1.0  0.11408  0.19689  0.39995  1.0000
  H   H76       1.0  0.18827  0.43222  0.44545  1.0000
  H   H77       1.0  0.26793  0.28872  0.36960  1.0000
  C   C59       1.0  0.42912  0.25286  0.62654  1.0000
  H   H78       1.0  0.24585  0.11451  0.44413  1.0000
  C   C60       1.0  0.07415  0.43590  0.42266  1.0000
  H   H79       1.0  0.44630  0.28774  0.63398  1.0000
  H   H80       1.0  0.17795  0.18556  0.39790  1.0000
  H   H81       1.0  0.28984  0.16860  0.62937  1.0000
  H   H82       1.0  0.07886  0.36647  0.38701  1.0000
  C   C61       1.0  0.13828  0.23175  0.39720  1.0000
  H   H83       1.0  0.42217  0.32361  0.58424  1.0000
  H   H84       1.0  0.37247  0.24945  0.59923  1.0000
  C   C62       1.0  0.20199  0.21908  0.38833  1.0000
  H   H85       1.0  0.02587  0.17453  0.42794  1.0000
  H   H86       1.0  0.03614  0.42520  0.49878  1.0000
  H   H87       1.0  0.06752  0.36708  0.46211  1.0000
  H   H88       1.0  0.28096  0.13735  0.39939  1.0000
  C   C63       1.0  0.99684  0.20395  0.46584  1.0000
  H   H89       1.0  0.13179  0.33305  0.43335  1.0000
  N   N2        1.0  0.10849  0.43528  0.44962  1.0000
  H   H90       1.0  0.25116  0.25867  0.58447  1.0000
  C   C64       1.0  0.10084  0.38999  0.45073  1.0000
  H   H91       1.0  0.20482  0.24511  0.61698  1.0000
  H   H92       1.0  0.06417  0.22416  0.45309  1.0000
  C   C65       1.0  0.19155  0.46431  0.45020  1.0000
  H   H93       1.0  0.25676  0.29086  0.62990  1.0000
  H   H94       1.0  0.12268  0.38744  0.47382  1.0000
  C   C66       1.0  0.26235  0.20535  0.38785  1.0000
  H   H95       1.0  0.41845  0.45905  0.55447  1.0000
  H   H96       1.0  0.29080  0.16881  0.44622  1.0000
  H   H97       1.0  0.27924  0.22931  0.41314  1.0000
  H   H98       1.0  0.43764  0.23569  0.65022  1.0000
  S   S27       1.0  0.45924  0.04183  0.60414  1.0000
  H   H99       1.0  0.07312  0.30536  0.43077  1.0000
  H   H100      1.0  0.10491  0.31520  0.38374  1.0000
  H   H101      1.0  0.28882  0.20509  0.36994  1.0000
  C   C67       1.0  0.43858  0.36918  0.53259  1.0000
  H   H102      1.0  0.21230  0.13603  0.38761  1.0000
  H   H103      1.0  0.30614  0.23799  0.60989  1.0000
  C   C68       1.0  0.06209  0.42353  0.51622  1.0000
  H   H104      1.0  0.03261  0.42137  0.57613  1.0000
  C   C69       1.0  0.39642  0.36427  0.59854  1.0000
  H   H105      1.0  0.19456  0.47122  0.48414  1.0000
  H   H106      1.0  0.15283  0.46234  0.39702  1.0000
  H   H107      1.0  0.40704  0.34545  0.51811  1.0000
  C   C70       1.0  0.29498  0.17445  0.66358  1.0000
  S   S28       1.0  0.24593  0.98092  0.55904  1.0000
  C   C71       1.0  0.23572  0.16071  0.40931  1.0000
  H   H108      1.0  0.99715  0.18642  0.49427  1.0000
  H   H109      1.0  0.03456  0.22559  0.40815  1.0000
  H   H110      1.0  0.22535  0.09673  0.63515  1.0000
  H   H111      1.0  0.31798  0.27899  0.64626  1.0000
  C   C72       1.0  0.37999  0.23429  0.62562  1.0000
  H   H112      1.0  0.07838  0.42923  0.38957  1.0000
  H   H113      1.0  0.23155  0.19539  0.63071  1.0000
  Fe  Fe12      1.0  0.35753  0.09259  0.65777  1.0000
  H   H114      1.0  0.15020  0.24490  0.42885  1.0000
  H   H115      1.0  0.12201  0.24852  0.38378  1.0000
  H   H116      1.0  0.36514  0.19940  0.61905  1.0000
  H   H117      1.0  0.21642  0.23689  0.41794  1.0000
  H   H118      1.0  0.00611  0.23692  0.47579  1.0000
  H   H119      1.0  0.05243  0.38917  0.52003  1.0000
  H   H120      1.0  0.44550  0.02440  0.51380  1.0000
  C   C73       1.0  0.25039  0.22836  0.64379  1.0000
  H   H121      1.0  0.36536  0.34455  0.58159  1.0000
  H   H122      1.0  0.34529  0.98930  0.47318  1.0000
  H   H123      1.0  0.00581  0.44932  0.40273  1.0000
  C   C74       1.0  0.23217  0.09739  0.66906  1.0000
  H   H124      1.0  0.97780  0.26861  0.43986  1.0000
  C   C75       1.0  0.17577  0.23868  0.36877  1.0000
  H   H125      1.0  0.39141  0.35419  0.63183  1.0000
  C   C76       1.0  0.43232  0.35800  0.57981  1.0000
  H   H126      1.0  0.13034  0.44571  0.51367  1.0000
  N   N3        1.0  0.23695  0.21960  0.36107  1.0000
  H   H127      1.0  0.96898  0.33155  0.45472  1.0000
  H   H128      1.0  0.09008  0.44152  0.57868  1.0000
  C   C77       1.0  0.06401  0.44162  0.55982  1.0000
  H   H129      1.0  0.40548  0.39866  0.59700  1.0000
  C   C78       1.0  0.10664  0.44899  0.49374  1.0000
  H   H130      1.0  0.19315  0.38316  0.35430  1.0000
  C   C79       1.0  0.26613  0.26529  0.34581  1.0000
  C   C80       1.0  0.97641  0.46472  0.57328  1.0000
  H   H131      1.0  0.42874  0.39814  0.38227  1.0000
  H   H132      1.0  0.44038  0.24845  0.59558  1.0000
  H   H133      1.0  0.96805  0.17424  0.57818  1.0000
  C   C81       1.0  0.36366  0.24293  0.66751  1.0000
  H   H134      1.0  0.33210  0.28446  0.36633  1.0000
  C   C82       1.0  0.15250  0.46641  0.43146  1.0000
  S   S29       1.0  0.42204  0.46912  0.46330  1.0000
  H   H135      1.0  0.44109  0.40108  0.52835  1.0000
  H   H136      1.0  0.46237  0.37771  0.59778  1.0000
  Fe  Fe13      1.0  0.96537  0.28718  0.60089  1.0000
  C   C83       1.0  0.46405  0.35928  0.46482  1.0000
  H   H137      1.0  0.04500  0.47093  0.36048  1.0000
  N   N4        1.0  0.31508  0.22208  0.67282  1.0000
  H   H138      1.0  0.31761  0.16287  0.67269  1.0000
  S   S30       1.0  0.33878  0.10533  0.72292  1.0000
  Fe  Fe14      1.0  0.32673  0.29530  0.95943  1.0000
  H   H139      1.0  0.98246  0.38319  0.72723  1.0000
  C   C84       1.0  0.38376  0.06733  0.81002  1.0000
  Fe  Fe15      1.0  0.38837  0.28987  0.89484  1.0000
  S   S31       1.0  0.44243  0.31472  0.94194  1.0000
  S   S32       1.0  0.40648  0.27823  0.82911  1.0000
  H   H140      1.0  0.40414  0.04671  0.75499  1.0000
  H   H141      1.0  0.99444  0.28545  0.79461  1.0000
  Fe  Fe16      1.0  0.42304  0.36323  0.96125  1.0000
  H   H142      1.0  0.44408  0.25589  0.76131  1.0000
  S   S33       1.0  0.33830  0.24158  0.93872  1.0000
  S   S34       1.0  0.37197  0.34143  0.91084  1.0000
  C   C85       1.0  0.37989  0.15361  0.90802  1.0000
  H   H143      1.0  0.99658  0.22053  0.97129  1.0000
  H   H144      1.0  0.32081  0.02110  0.83534  1.0000
  C   C86       1.0  0.97888  0.24155  0.84762  1.0000
  H   H145      1.0  0.30717  0.08539  0.92211  1.0000
  H   H146      1.0  0.37442  0.14055  0.94006  1.0000
  C   C87       1.0  0.36177  0.05118  0.90556  1.0000
  H   H147      1.0  0.40807  0.06578  0.83026  1.0000
  H   H148      1.0  0.34878  0.03497  0.75312  1.0000
  H   H149      1.0  0.01913  0.23404  0.91955  1.0000
  C   C88       1.0  0.42161  0.19735  0.90830  1.0000
  C   C89       1.0  0.25184  0.14308  0.68625  1.0000
  C   C90       1.0  0.35913  0.15318  0.75312  1.0000
  C   C91       1.0  0.33432  0.15419  0.78691  1.0000
  C   C92       1.0  0.34897  0.19157  0.81153  1.0000
  C   C93       1.0  0.38845  0.22871  0.80222  1.0000
  C   C94       1.0  0.41347  0.22744  0.76877  1.0000
  C   C95       1.0  0.39920  0.18980  0.74469  1.0000
  H   H150      1.0  0.30326  0.12605  0.79379  1.0000
  H   H151      1.0  0.32918  0.19206  0.83694  1.0000
  H   H152      1.0  0.46405  0.12185  0.92209  1.0000
  H   H153      1.0  0.41891  0.18934  0.71920  1.0000
  H   H154      1.0  0.07992  0.30409  0.94638  1.0000
  C   C96       1.0  0.22543  0.02307  0.91046  1.0000
  H   H155      1.0  0.29553  0.08922  0.86931  1.0000
  C   C97       1.0  0.37426  0.03607  0.77386  1.0000
  H   H156      1.0  0.32369  0.06799  0.81384  1.0000
  H   H157      1.0  0.37719  0.23233  0.69300  1.0000
  C   C98       1.0  0.32874  0.27568  0.73345  1.0000
  H   H158      1.0  0.07734  0.43646  0.96765  1.0000
  H   H159      1.0  0.35267  0.15920  0.90042  1.0000
  H   H160      1.0  0.39894  0.10040  0.79674  1.0000
  H   H161      1.0  0.05682  0.28950  0.99835  1.0000
  C   C99       1.0  0.31244  0.27797  0.77704  1.0000
  H   H162      1.0  0.42794  0.21274  0.87700  1.0000
  H   H163      1.0  0.31725  0.21100  0.73864  1.0000
  C   C100      1.0  0.37373  0.03037  0.97782  1.0000
  H   H164      1.0  0.23082  0.03530  0.94301  1.0000
  C   C101      1.0  0.30479  0.07085  0.89100  1.0000
  C   C102      1.0  0.24841  0.38636  0.99303  1.0000
  H   H165      1.0  0.27126  0.21396  0.72397  1.0000
  H   H166      1.0  0.41831  0.21879  0.93111  1.0000
  C   C103      1.0  0.36514  0.06148  0.95268  1.0000
  C   C104      1.0  0.38208  0.12293  0.87516  1.0000
  H   H167      1.0  0.01266  0.30369  0.92712  1.0000
  H   H168      1.0  0.36437  0.28928  0.73577  1.0000
  H   H169      1.0  0.97005  0.33359  0.94486  1.0000
  H   H170      1.0  0.21655  0.04286  0.89061  1.0000
  H   H171      1.0  0.39248  0.09430  0.95878  1.0000
  H   H172      1.0  0.20126  0.07579  0.68555  1.0000
  C   C105      1.0  0.30644  0.22853  0.71767  1.0000
  H   H173      1.0  0.25794  0.00892  0.86221  1.0000
  H   H174      1.0  0.01320  0.25714  0.85778  1.0000
  H   H175      1.0  0.39409  0.05665  0.89608  1.0000
  N   N5        1.0  0.34766  0.07572  0.87746  1.0000
  H   H176      1.0  0.33976  0.01586  0.90189  1.0000
  H   H177      1.0  0.33465  0.05838  0.96471  1.0000
  H   H178      1.0  0.31719  0.25689  0.79923  1.0000
  H   H179      1.0  0.33088  0.31152  0.78887  1.0000
  H   H180      1.0  0.07644  0.25808  0.97271  1.0000
  H   H181      1.0  0.38056  0.13684  0.84458  1.0000
  H   H182      1.0  0.36323  0.00314  0.78590  1.0000
  C   C106      1.0  0.99495  0.41203  0.74745  1.0000
  C   C107      1.0  0.01477  0.24754  0.94895  1.0000
  C   C108      1.0  0.34156  0.05681  0.83411  1.0000
  C   C109      1.0  0.26396  0.35879  0.98085  1.0000
  H   H183      1.0  0.41500  0.12670  0.87602  1.0000
  H   H184      1.0  0.27745  0.26792  0.77617  1.0000
  C   C110      1.0  0.09202  0.46612  0.94821  1.0000
  Fe  Fe17      1.0  0.39119  0.26822  0.98662  1.0000
  S   S35       1.0  0.25736  0.27842  0.97461  1.0000
  H   H185      1.0  0.06538  0.46983  0.93470  1.0000
  H   H186      1.0  0.29501  0.37170  0.96526  1.0000
  H   H187      1.0  0.32216  0.29635  0.71255  1.0000
  C   C111      1.0  0.05969  0.27675  0.96767  1.0000
  H   H188      1.0  0.27329  0.00404  0.91479  1.0000
  H   H189      1.0  0.40474  0.03268  0.96821  1.0000
  H   H190      1.0  0.25800  0.14150  0.72006  1.0000
  C   C112      1.0  0.23924  0.31455  0.98877  1.0000
  C   C113      1.0  0.98116  0.46749  0.98577  1.0000
  H   H191      1.0  0.97412  0.29572  0.86763  1.0000
  C   C114      1.0  0.26603  0.02404  0.89355  1.0000
  H   H192      1.0  0.34692  0.99681  0.97320  1.0000
  H   H193      1.0  0.26778  0.42052  0.98677  1.0000
  H   H194      1.0  0.97544  0.45487  0.77220  1.0000
  H   H195      1.0  0.11076  0.46264  0.92227  1.0000
  H   H196      1.0  0.02492  0.43833  0.73290  1.0000
  H   H197      1.0  0.31955  0.16727  0.99125  1.0000
  H   H198      1.0  0.19788  0.98939  0.91072  1.0000
  C   C115      1.0  0.97897  0.25034  0.80085  1.0000
  C   C116      1.0  0.98988  0.27227  0.94211  1.0000
  H   H199      1.0  0.26937  0.08868  0.99780  1.0000
  H   H200      1.0  0.98443  0.28057  0.97427  1.0000
  H   H201      1.0  0.99744  0.23779  0.78378  1.0000
  H   H202      1.0  0.00326  0.40440  0.77851  1.0000
  H   H203      1.0  0.36379  0.47080  0.00192  1.0000
  H   H204      1.0  0.96871  0.44889  0.95749  1.0000
  H   H205      1.0  0.44962  0.19382  0.91777  1.0000
  H   H206      1.0  0.46164  0.12242  0.99975  1.0000
  H   H207      1.0  0.25461  0.08478  0.67415  1.0000
  H   H208      1.0  0.23882  0.22870  0.67579  1.0000
  H   H209      1.0  0.22731  0.15316  0.68330  1.0000
  H   H210      1.0  0.02722  0.69010  0.25875  1.0000
  H   H211      1.0  0.03256  0.66083  0.05024  1.0000
  S   S36       1.0  0.30803  0.93313  0.03983  1.0000
  Fe  Fe18      1.0  0.26109  0.91202  0.15401  1.0000
  S   S37       1.0  0.28785  0.87343  0.12428  1.0000
  S   S38       1.0  0.22545  0.90017  0.21728  1.0000
  Fe  Fe19      1.0  0.34288  0.93678  0.09939  1.0000
  H   H212      1.0  0.98447  0.78749  0.05235  1.0000
  Fe  Fe20      1.0  0.25110  0.87345  0.06695  1.0000
  S   S39       1.0  0.21135  0.81098  0.03070  1.0000
  C   C117      1.0  0.98995  0.52557  0.03023  1.0000
  S   S40       1.0  0.22236  0.90945  0.09745  1.0000
  H   H213      1.0  0.21268  0.59236  0.09169  1.0000
  C   C118      1.0  0.19935  0.85448  0.25120  1.0000
  C   C119      1.0  0.17004  0.85298  0.28167  1.0000
  H   H214      1.0  0.04464  0.61910  0.06339  1.0000
  C   C120      1.0  0.15702  0.78348  0.30756  1.0000
  C   C121      1.0  0.18669  0.78522  0.27736  1.0000
  C   C122      1.0  0.20773  0.82041  0.24944  1.0000
  H   H215      1.0  0.16326  0.87912  0.28343  1.0000
  H   H216      1.0  0.02632  0.53408  0.08678  1.0000
  H   H217      1.0  0.19305  0.75883  0.27522  1.0000
  H   H218      1.0  0.23054  0.82125  0.22662  1.0000
  C   C123      1.0  0.01376  0.51536  0.05856  1.0000
  N   N6        1.0  0.18801  0.53614  0.02448  1.0000
  H   H219      1.0  0.13005  0.53227  0.14215  1.0000
  H   H220      1.0  0.20077  0.54285  0.11702  1.0000
  H   H221      1.0  0.25048  0.93924  0.32005  1.0000
  H   H222      1.0  0.14074  0.49952  0.07204  1.0000
  C   C124      1.0  0.05779  0.65441  0.06296  1.0000
  H   H223      1.0  0.12541  0.81647  0.33176  1.0000
  H   H224      1.0  0.29951  0.92274  0.27724  1.0000
  H   H225      1.0  0.18760  0.61791  0.03908  1.0000
  C   C125      1.0  0.18616  0.55978  0.10056  1.0000
  N   N7        1.0  0.10413  0.74313  0.14972  1.0000
  C   C126      1.0  0.06910  0.72306  0.18256  1.0000
  C   C127      1.0  0.08561  0.72095  0.10867  1.0000
  C   C128      1.0  0.14191  0.73800  0.16296  1.0000
  C   C129      1.0  0.12015  0.79063  0.14449  1.0000
  C   C130      1.0  0.08462  0.80329  0.13996  1.0000
  C   C131      1.0  0.08185  0.74340  0.22659  1.0000
  C   C132      1.0  0.17862  0.75155  0.13015  1.0000
  C   C133      1.0  0.07059  0.67219  0.10714  1.0000
  C   C134      1.0  0.31239  0.95020  0.29939  1.0000
  C   C135      1.0  0.10485  0.85185  0.13385  1.0000
  C   C136      1.0  0.04245  0.72559  0.25556  1.0000
  C   C137      1.0  0.21565  0.74631  0.14739  1.0000
  H   H226      1.0  0.05903  0.68857  0.18712  1.0000
  H   H227      1.0  0.03921  0.72284  0.17211  1.0000
  H   H228      1.0  0.05695  0.72376  0.09987  1.0000
  H   H229      1.0  0.10925  0.73740  0.08300  1.0000
  H   H230      1.0  0.13077  0.70437  0.17306  1.0000
  H   H231      1.0  0.15745  0.75774  0.19116  1.0000
  H   H232      1.0  0.14163  0.80950  0.17090  1.0000
  H   H233      1.0  0.14127  0.80341  0.11635  1.0000
  H   H234      1.0  0.06408  0.79456  0.16838  1.0000
  H   H235      1.0  0.06348  0.78713  0.11272  1.0000
  H   H236      1.0  0.10519  0.73526  0.24075  1.0000
  H   H237      1.0  0.09689  0.77891  0.22578  1.0000
  H   H238      1.0  0.19248  0.78586  0.12131  1.0000
  H   H239      1.0  0.16661  0.73165  0.10153  1.0000
  H   H240      1.0  0.09650  0.66579  0.11738  1.0000
  H   H241      1.0  0.04170  0.65357  0.12736  1.0000
  H   H242      1.0  0.12736  0.86968  0.15990  1.0000
  C   C138      1.0  0.15626  0.79073  0.01711  1.0000
  C   C139      1.0  0.03115  0.87626  0.05533  1.0000
  H   H243      1.0  0.05293  0.74003  0.28707  1.0000
  H   H244      1.0  0.12298  0.86213  0.10390  1.0000
  H   H245      1.0  0.07898  0.86045  0.13309  1.0000
  H   H246      1.0  0.24327  0.60099  0.01916  1.0000
  C   C140      1.0  0.08988  0.79423  0.01914  1.0000
  H   H247      1.0  0.08664  0.66910  0.04216  1.0000
  H   H248      1.0  0.20388  0.71217  0.15580  1.0000
  H   H249      1.0  0.24141  0.75644  0.12325  1.0000
  H   H250      1.0  0.23009  0.76689  0.17534  1.0000
  S   S41       1.0  0.41489  0.95535  0.10293  1.0000
  H   H251      1.0  0.13660  0.54312  0.05351  1.0000
  H   H252      1.0  0.98391  0.55162  0.03686  1.0000
  H   H253      1.0  0.20565  0.49406  0.05694  1.0000
  C   C141      1.0  0.16076  0.53351  0.06170  1.0000
  H   H254      1.0  0.15185  0.84358  0.04288  1.0000
  C   C142      1.0  0.13440  0.81257  0.02785  1.0000
  H   H255      1.0  0.14133  0.58212  0.11721  1.0000
  Fe  Fe21      1.0  0.28217  0.96976  0.07508  1.0000
  H   H256      1.0  0.05227  0.86173  0.05491  1.0000
  H   H257      1.0  0.02661  0.88336  0.08809  1.0000
  H   H258      1.0  0.01821  0.73371  0.24354  1.0000
  C   C143      1.0  0.15623  0.56449  0.13164  1.0000
  H   H259      1.0  0.04788  0.90711  0.03772  1.0000
  C   C144      1.0  0.14882  0.81768  0.30946  1.0000
  H   H260      1.0  0.07330  0.81133  0.02774  1.0000
  H   H261      1.0  0.17510  0.58272  0.15941  1.0000
  C   C145      1.0  0.02101  0.48088  0.05096  1.0000
  H   H262      1.0  0.34371  0.95579  0.31228  1.0000
  H   H263      1.0  0.96825  0.86265  0.03556  1.0000
  C   C146      1.0  0.98738  0.84609  0.03503  1.0000
  C   C147      1.0  0.27977  0.94114  0.33449  1.0000
  H   H264      1.0  0.24429  0.54990  0.06170  1.0000
  H   H265      1.0  0.24522  0.87172  0.33567  1.0000
  C   C148      1.0  0.22160  0.52516  0.03936  1.0000
  H   H266      1.0  0.27556  0.49046  0.04585  1.0000
  H   H267      1.0  0.96574  0.80810  0.09207  1.0000
  H   H268      1.0  0.31013  0.54833  0.04158  1.0000
  H   H269      1.0  0.35947  0.48113  0.07667  1.0000
  H   H270      1.0  0.41747  0.50690  0.02183  1.0000
  C   C149      1.0  0.28807  0.51845  0.02426  1.0000
  C   C150      1.0  0.18763  0.60716  0.00662  1.0000
  S   S42       1.0  0.12805  0.73607  0.33890  1.0000
  H   H271      1.0  0.26144  0.49545  0.44404  1.0000
  Fe  Fe22      1.0  0.12358  0.73997  0.49504  1.0000
  S   S43       1.0  0.09567  0.76750  0.45021  1.0000
  S   S44       1.0  0.18664  0.78379  0.52938  1.0000
  Fe  Fe23      1.0  0.05800  0.64553  0.47027  1.0000
  S   S45       1.0  0.02707  0.66794  0.42214  1.0000
  S   S46       1.0  0.03506  0.57288  0.47316  1.0000
  Fe  Fe24      1.0  0.09509  0.72032  0.40386  1.0000
  Fe  Fe25      1.0  0.03056  0.71327  0.47267  1.0000
  S   S47       1.0  0.12527  0.69425  0.44826  1.0000
  S   S48       1.0  0.05900  0.68916  0.52133  1.0000
  C   C151      1.0  0.01221  0.53220  0.51275  1.0000
  H   H272      1.0  0.21044  0.83951  0.44350  1.0000
  C   C152      1.0  0.27557  0.92243  0.43233  1.0000
  H   H273      1.0  0.10483  0.50596  0.41157  1.0000
  H   H274      1.0  0.36204  0.86207  0.40470  1.0000
  C   C153      1.0  0.36782  0.93027  0.60675  1.0000
  H   H275      1.0  0.29291  0.93424  0.56280  1.0000
  H   H276      1.0  0.12304  0.88467  0.39949  1.0000
  H   H277      1.0  0.30384  0.82341  0.58095  1.0000
  C   C154      1.0  0.37573  0.84645  0.48696  1.0000
  H   H278      1.0  0.23988  0.53045  0.43385  1.0000
  H   H279      1.0  0.23362  0.49048  0.39563  1.0000
  C   C155      1.0  0.22982  0.92608  0.55219  1.0000
  C   C156      1.0  0.18644  0.89658  0.54212  1.0000
  C   C157      1.0  0.17285  0.85298  0.53474  1.0000
  C   C158      1.0  0.20249  0.83842  0.53791  1.0000
  C   C159      1.0  0.24579  0.86790  0.54826  1.0000
  C   C160      1.0  0.25949  0.91160  0.55524  1.0000
  H   H280      1.0  0.16327  0.90757  0.53976  1.0000
  H   H281      1.0  0.13933  0.83057  0.52712  1.0000
  H   H282      1.0  0.26877  0.85692  0.55073  1.0000
  H   H283      1.0  0.46020  0.72708  0.42283  1.0000
  H   H284      1.0  0.20040  0.91406  0.45917  1.0000
  H   H285      1.0  0.34567  0.88380  0.53806  1.0000
  C   C161      1.0  0.38642  0.90181  0.59392  1.0000
  H   H286      1.0  0.36636  0.81257  0.58815  1.0000
  C   C162      1.0  0.27771  0.75551  0.57568  1.0000
  C   C163      1.0  0.46216  0.49035  0.50329  1.0000
  H   H287      1.0  0.40130  0.92044  0.53015  1.0000
  H   H288      1.0  0.03764  0.50666  0.39462  1.0000
  H   H289      1.0  0.38402  0.97186  0.46448  1.0000
  H   H290      1.0  0.02594  0.57482  0.56486  1.0000
  C   C164      1.0  0.35484  0.81241  0.55582  1.0000
  C   C165      1.0  0.30677  0.80113  0.55900  1.0000
  H   H291      1.0  0.34246  0.84020  0.48028  1.0000
  C   C166      1.0  0.25956  0.82935  0.41789  1.0000
  H   H292      1.0  0.21477  0.77012  0.45045  1.0000
  C   C167      1.0  0.40666  0.88386  0.45759  1.0000
  C   C168      1.0  0.99433  0.48875  0.50104  1.0000
  H   H293      1.0  0.37565  0.81681  0.47665  1.0000
  C   C169      1.0  0.37857  0.89021  0.54688  1.0000
  H   H294      1.0  0.26016  0.76965  0.42651  1.0000
  N   N8        1.0  0.38517  0.85376  0.53309  1.0000
  H   H295      1.0  0.24381  0.74897  0.57830  1.0000
  H   H296      1.0  0.40102  0.84373  0.40425  1.0000
  C   C170      1.0  0.22693  0.84558  0.41269  1.0000
  H   H297      1.0  0.20137  0.82391  0.39018  1.0000
  C   C171      1.0  0.99388  0.50811  0.58508  1.0000
  C   C172      1.0  0.34896  0.96067  0.46822  1.0000
  H   H298      1.0  0.33952  0.95772  0.40201  1.0000
  H   H299      1.0  0.42187  0.91995  0.60023  1.0000
  H   H300      1.0  0.35488  0.78465  0.54045  1.0000
  H   H301      1.0  0.29659  0.89555  0.35934  1.0000
  C   C173      1.0  0.03826  0.47603  0.39320  1.0000
  H   H302      1.0  0.42433  0.80120  0.53659  1.0000
  H   H303      1.0  0.33183  0.91118  0.60722  1.0000
  H   H304      1.0  0.15998  0.93960  0.41579  1.0000
  N   N9        1.0  0.24550  0.89200  0.39936  1.0000
  H   H305      1.0  0.40360  0.91273  0.46275  1.0000
  C   C174      1.0  0.43128  0.86561  0.54262  1.0000
  H   H306      1.0  0.41804  0.89884  0.39157  1.0000
  H   H307      1.0  0.29373  0.80333  0.52826  1.0000
  H   H308      1.0  0.37153  0.87295  0.61430  1.0000
  H   H309      1.0  0.96743  0.63419  0.65964  1.0000
  C   C175      1.0  0.07339  0.47877  0.42246  1.0000
  H   H310      1.0  0.37854  0.95790  0.58493  1.0000
  C   C176      1.0  0.39607  0.87116  0.41178  1.0000
  H   H311      1.0  0.97837  0.59832  0.53175  1.0000
  H   H312      1.0  0.44610  0.83454  0.49079  1.0000
  C   C177      1.0  0.23413  0.49730  0.42951  1.0000
  H   H313      1.0  0.18587  0.87890  0.36898  1.0000
  H   H314      1.0  0.28863  0.75182  0.60709  1.0000
  H   H315      1.0  0.27787  0.73144  0.55405  1.0000
  H   H316      1.0  0.28151  0.83736  0.39075  1.0000
  C   C178      1.0  0.23614  0.78044  0.42259  1.0000
  C   C179      1.0  0.01189  0.54166  0.55513  1.0000
  H   H317      1.0  0.44093  0.89291  0.46240  1.0000
  C   C180      1.0  0.26701  0.89818  0.35721  1.0000
  H   H318      1.0  0.43651  0.86745  0.57699  1.0000
  H   H319      1.0  0.27892  0.84332  0.44665  1.0000
  H   H320      1.0  0.96644  0.57211  0.63188  1.0000
  C   C181      1.0  0.32429  0.93607  0.42925  1.0000
  C   C182      1.0  0.20785  0.89982  0.39400  1.0000
  C   C183      1.0  0.17989  0.89334  0.43340  1.0000
  H   H321      1.0  0.32919  0.90825  0.42551  1.0000
  H   H322      1.0  0.06662  0.48663  0.45404  1.0000
  H   H323      1.0  0.11713  0.48387  0.49490  1.0000
  H   H324      1.0  0.26368  0.90849  0.46399  1.0000
  H   H325      1.0  0.16284  0.85936  0.44385  1.0000
  H   H326      1.0  0.37918  0.94324  0.63859  1.0000
  H   H327      1.0  0.12533  0.89974  0.45350  1.0000
  C   C184      1.0  0.14498  0.90515  0.42479  1.0000
  S   S49       1.0  0.97907  0.72918  0.49439  1.0000
  H   H328      1.0  0.21620  0.76451  0.39450  1.0000
  H   H329      1.0  0.15981  0.50015  0.43577  1.0000
  C   C185      1.0  0.44600  0.83459  0.52543  1.0000
  H   H330      1.0  0.96565  0.84321  0.44659  1.0000
  H   H331      1.0  0.21959  0.93352  0.38377  1.0000
  H   H332      1.0  0.29403  0.96871  0.35646  1.0000
  H   H333      1.0  0.06986  0.47502  0.55773  1.0000
  H   H334      1.0  0.27485  0.95313  0.43223  1.0000
  H   H335      1.0  0.33670  0.93962  0.49624  1.0000
  H   H336      1.0  0.99403  0.51589  0.61769  1.0000
  H   H337      1.0  0.45437  0.89852  0.53103  1.0000
  H   H338      1.0  0.99371  0.48091  0.46844  1.0000
  C   C186      1.0  0.45196  0.47961  0.54539  1.0000
  C   C187      1.0  0.97045  0.56686  0.69796  1.0000
  H   H339      1.0  0.21807  0.57782  0.97111  1.0000
  H   H340      1.0  0.30693  0.51389  0.99917  1.0000
  H   H341      1.0  0.23134  0.49197  0.98622  1.0000
  H   H342      1.0  0.96428  0.52572  0.80110  1.0000
  H   H343      1.0  0.13391  0.53403  0.95397  1.0000
  H   H344      1.0  0.10057  0.50775  0.99930  1.0000
  C   C188      1.0  0.21069  0.64758  0.97942  1.0000
  H   H345      1.0  0.19403  0.66660  0.98240  1.0000
  C   C189      1.0  0.06674  0.75405  0.99933  1.0000
  S   S50       1.0  0.96582  0.62463  0.91296  1.0000
  H   H346      1.0  0.00143  0.59791  0.70089  1.0000
  H   H347      1.0  0.20996  0.63879  0.94607  1.0000
  H   H348      1.0  0.15345  0.58865  0.99638  1.0000
  C   C190      1.0  0.97356  0.50173  0.99361  1.0000
  H   H349      1.0  0.97814  0.54057  0.69510  1.0000
  C   C191      1.0  0.08874  0.73259  0.98767  1.0000
  H   H350      1.0  0.17865  0.50227  0.96593  1.0000
  S   S51       1.0  0.01042  0.73206  0.99060  1.0000
  H   H351      1.0  0.07139  0.70184  0.97201  1.0000
  H   H352      1.0  0.26429  0.54984  0.98382  1.0000
  C   C192      1.0  0.13331  0.75085  0.99663  1.0000
  C   C193      1.0  0.12126  0.50551  0.97479  1.0000
  C   C194      1.0  0.15944  0.50200  0.99340  1.0000
  H   H353      1.0  0.24493  0.66814  0.98948  1.0000
  H   H354      1.0  0.15001  0.73383  0.98798  1.0000
  H   H355      1.0  0.99412  0.84133  0.00222  1.0000
  C   C195      1.0  0.25046  0.52156  0.00504  1.0000
  C   C196      1.0  0.21091  0.58037  0.00452  1.0000
  S   S52       1.0  0.78562  0.20377  0.02442  1.0000
  N   N10       1.0  0.51551  0.14147  0.04222  1.0000
  C   C197      1.0  0.92619  0.23959  0.05398  1.0000
  C   C198      1.0  0.91282  0.26993  0.05837  1.0000
  C   C199      1.0  0.86940  0.25819  0.05006  1.0000
  H   H356      1.0  0.93602  0.30233  0.06794  1.0000
  H   H357      1.0  0.48780  0.06922  0.09689  1.0000
  H   H358      1.0  0.88246  0.45328  0.09187  1.0000
  H   H359      1.0  0.80967  0.44176  0.08270  1.0000
  H   H360      1.0  0.63426  0.14707  0.06696  1.0000
  C   C200      1.0  0.57612  0.14605  0.09050  1.0000
  H   H361      1.0  0.64657  0.02779  0.10407  1.0000
  H   H362      1.0  0.83560  0.32034  0.11215  1.0000
  H   H363      1.0  0.76331  0.26650  0.13710  1.0000
  C   C201      1.0  0.52886  0.02417  0.00882  1.0000
  C   C202      1.0  0.81948  0.36959  0.09251  1.0000
  C   C203      1.0  0.91636  0.40258  0.10411  1.0000
  H   H364      1.0  0.55427  0.13170  0.11780  1.0000
  C   C204      1.0  0.83929  0.21646  0.03658  1.0000
  C   C205      1.0  0.53554  0.01309  0.04893  1.0000
  H   H365      1.0  0.79738  0.36975  0.01579  1.0000
  H   H366      1.0  0.91511  0.40504  0.03746  1.0000
  H   H367      1.0  0.90575  0.17375  0.03850  1.0000
  C   C206      1.0  0.86742  0.44034  0.06091  1.0000
  H   H368      1.0  0.85899  0.28145  0.05373  1.0000
  H   H369      1.0  0.93765  0.43818  0.10344  1.0000
  H   H370      1.0  0.78872  0.36938  0.08575  1.0000
  H   H371      1.0  0.54279  0.26995  0.05101  1.0000
  C   C207      1.0  0.77090  0.30023  0.13218  1.0000
  N   N11       1.0  0.85217  0.39295  0.05822  1.0000
  C   C208      1.0  0.48447  0.12720  0.07871  1.0000
  H   H372      1.0  0.50052  0.14728  0.10669  1.0000
  H   H373      1.0  0.74105  0.29952  0.12103  1.0000
  H   H374      1.0  0.79627  0.30309  0.07079  1.0000
  H   H375      1.0  0.56801  0.02201  0.05864  1.0000
  C   C209      1.0  0.61077  0.13292  0.09322  1.0000
  H   H376      1.0  0.83062  0.38708  0.12269  1.0000
  H   H377      1.0  0.78090  0.31736  0.16255  1.0000
  C   C210      1.0  0.89104  0.38711  0.06240  1.0000
  H   H378      1.0  0.89476  0.39410  0.13163  1.0000
  H   H379      1.0  0.92465  0.34768  0.11754  1.0000
  S   S53       1.0  0.68595  0.08108  0.02918  1.0000
  C   C211      1.0  0.94498  0.38268  0.11093  1.0000
  H   H380      1.0  0.82975  0.15362  0.02312  1.0000
  H   H381      1.0  0.63116  0.98492  0.26109  1.0000
  H   H382      1.0  0.53739  0.09525  0.04659  1.0000
  C   C212      1.0  0.53013  0.25553  0.01988  1.0000
  H   H383      1.0  0.59554  0.09730  0.09226  1.0000
  H   H384      1.0  0.59270  0.18162  0.09297  1.0000
  C   C213      1.0  0.89582  0.19758  0.04148  1.0000
  H   H385      1.0  0.62883  0.14455  0.12303  1.0000
  C   C214      1.0  0.80735  0.32209  0.10002  1.0000
  C   C215      1.0  0.50588  0.20641  0.02260  1.0000
  C   C216      1.0  0.83177  0.45265  0.05526  1.0000
  H   H386      1.0  0.64338  0.98722  0.16554  1.0000
  H   H387      1.0  0.88172  0.35302  0.05705  1.0000
  H   H388      1.0  0.47690  0.08332  0.00695  1.0000
  H   H389      1.0  0.62655  0.98099  0.07116  1.0000
  H   H390      1.0  0.82579  0.34133  0.01291  1.0000
  C   C217      1.0  0.53626  0.18970  0.03765  1.0000
  C   C218      1.0  0.62545  0.99227  0.10318  1.0000
  H   H391      1.0  0.67489  0.98002  0.12564  1.0000
  H   H392      1.0  0.54998  0.20570  0.06805  1.0000
  C   C219      1.0  0.55077  0.13053  0.04890  1.0000
  H   H393      1.0  0.89397  0.45880  0.03802  1.0000
  H   H394      1.0  0.59174  0.98426  0.11056  1.0000
  C   C220      1.0  0.85268  0.18611  0.03256  1.0000
  C   C221      1.0  0.50028  0.99156  0.07697  1.0000
  H   H395      1.0  0.81204  0.43797  0.02692  1.0000
  C   C222      1.0  0.83065  0.37429  0.01682  1.0000
  S   S54       1.0  0.72264  0.99417  0.02357  1.0000
  H   H396      1.0  0.57536  0.14444  0.02345  1.0000
  H   H397      1.0  0.46737  0.43281  0.05459  1.0000
  C   C223      1.0  0.48460  0.46624  0.04502  1.0000
  H   H398      1.0  0.50748  0.26636  0.00913  1.0000
  H   H399      1.0  0.56464  0.20265  0.01612  1.0000
  H   H400      1.0  0.47841  0.19665  0.04450  1.0000
  H   H401      1.0  0.50601  0.98374  0.10807  1.0000
  S   S55       1.0  0.74666  0.01715  0.49883  1.0000
  Fe  Fe26      1.0  0.87095  0.25734  0.58346  1.0000
  S   S56       1.0  0.90270  0.23116  0.62518  1.0000
  S   S57       1.0  0.81518  0.21486  0.53956  1.0000
  Fe  Fe27      1.0  0.93348  0.35183  0.61011  1.0000
  H   H402      1.0  0.85952  0.40445  0.62765  1.0000
  H   H403      1.0  0.88179  0.21786  0.46815  1.0000
  S   S58       1.0  0.93337  0.31123  0.55669  1.0000
  S   S59       1.0  0.86761  0.30017  0.63325  1.0000
  H   H404      1.0  0.60155  0.05719  0.49981  1.0000
  H   H405      1.0  0.54520  0.97465  0.56351  1.0000
  C   C224      1.0  0.65427  0.05928  0.56668  1.0000
  C   C225      1.0  0.76175  0.07073  0.51265  1.0000
  C   C226      1.0  0.74688  0.09428  0.49037  1.0000
  C   C227      1.0  0.76284  0.13809  0.49963  1.0000
  C   C228      1.0  0.79383  0.15888  0.53122  1.0000
  C   C229      1.0  0.80770  0.13494  0.55438  1.0000
  C   C230      1.0  0.79205  0.09126  0.54481  1.0000
  H   H406      1.0  0.72416  0.07910  0.46506  1.0000
  H   H407      1.0  0.75177  0.15622  0.48158  1.0000
  H   H408      1.0  0.83106  0.15024  0.57916  1.0000
  H   H409      1.0  0.80376  0.07330  0.56224  1.0000
  H   H410      1.0  0.74719  0.20947  0.65073  1.0000
  H   H411      1.0  0.69303  0.00944  0.57206  1.0000
  C   C231      1.0  0.48122  0.33203  0.52744  1.0000
  H   H412      1.0  0.77067  0.18503  0.61910  1.0000
  C   C232      1.0  0.58657  0.43492  0.67257  1.0000
  C   C233      1.0  0.69958  0.97689  0.62461  1.0000
  H   H413      1.0  0.48839  0.33572  0.56129  1.0000
  C   C234      1.0  0.93313  0.14915  0.57795  1.0000
  H   H414      1.0  0.51115  0.43773  0.50350  1.0000
  H   H415      1.0  0.49176  0.36191  0.44638  1.0000
  C   C235      1.0  0.51710  0.41139  0.51325  1.0000
  H   H416      1.0  0.54122  0.39884  0.57274  1.0000
  C   C236      1.0  0.51674  0.32560  0.50634  1.0000
  H   H417      1.0  0.96296  0.42212  0.52128  1.0000
  S   S60       1.0  0.95419  0.42375  0.61251  1.0000
  C   C237      1.0  0.47866  0.01826  0.56702  1.0000
  H   H418      1.0  0.59145  0.03223  0.62115  1.0000
  H   H419      1.0  0.83167  0.06508  0.40712  1.0000
  C   C238      1.0  0.62182  0.05925  0.63433  1.0000
  C   C239      1.0  0.48405  0.99538  0.49665  1.0000
  H   H420      1.0  0.72811  0.10802  0.60116  1.0000
  H   H421      1.0  0.61981  0.08846  0.62751  1.0000
  C   C240      1.0  0.66193  0.02118  0.62602  1.0000
  C   C241      1.0  0.74809  0.17939  0.64538  1.0000
  H   H422      1.0  0.91476  0.15965  0.59798  1.0000
  H   H423      1.0  0.54142  0.41289  0.49040  1.0000
  C   C242      1.0  0.58597  0.46236  0.55206  1.0000
  H   H424      1.0  0.46722  0.37958  0.37972  1.0000
  H   H425      1.0  0.84703  0.15713  0.40027  1.0000
  H   H426      1.0  0.48996  0.25899  0.52687  1.0000
  H   H427      1.0  0.54879  0.35558  0.50754  1.0000
  C   C243      1.0  0.95038  0.26412  0.45985  1.0000
  H   H428      1.0  0.91212  0.29608  0.46533  1.0000
  C   C244      1.0  0.82166  0.08919  0.40033  1.0000
  H   H429      1.0  0.50843  0.31568  0.47330  1.0000
  C   C245      1.0  0.84221  0.39008  0.65747  1.0000
  H   H430      1.0  0.68181  0.05960  0.55026  1.0000
  C   C246      1.0  0.63495  0.08543  0.50096  1.0000
  C   C247      1.0  0.52108  0.29010  0.52827  1.0000
  N   N12       1.0  0.66075  0.06122  0.61342  1.0000
  H   H431      1.0  0.54643  0.28582  0.51249  1.0000
  C   C248      1.0  0.69844  0.01550  0.60596  1.0000
  C   C249      1.0  0.91043  0.21894  0.45264  1.0000
  H   H432      1.0  0.65686  0.07812  0.48255  1.0000
  H   H433      1.0  0.79297  0.08186  0.41989  1.0000
  H   H434      1.0  0.61086  0.43905  0.64851  1.0000
  H   H435      1.0  0.52152  0.43621  0.57646  1.0000
  C   C250      1.0  0.85887  0.13484  0.40887  1.0000
  C   C251      1.0  0.70318  0.10039  0.62583  1.0000
  H   H436      1.0  0.94423  0.14623  0.44002  1.0000
  C   C252      1.0  0.91870  0.18189  0.51342  1.0000
  H   H437      1.0  0.63453  0.11324  0.48623  1.0000
  H   H438      1.0  0.88639  0.14107  0.38813  1.0000
  H   H439      1.0  0.84501  0.13909  0.47369  1.0000
  H   H440      1.0  0.90434  0.21763  0.41854  1.0000
  H   H441      1.0  0.87369  0.11128  0.46449  1.0000
  H   H442      1.0  0.68274  0.12601  0.54547  1.0000
  H   H443      1.0  0.62496  0.02818  0.55803  1.0000
  N   N13       1.0  0.47577  0.36833  0.51053  1.0000
  C   C253      1.0  0.50694  0.00399  0.58058  1.0000
  H   H444      1.0  0.68989  0.15259  0.60882  1.0000
  C   C254      1.0  0.65039  0.09628  0.54616  1.0000
  H   H445      1.0  0.55436  0.42133  0.65729  1.0000
  C   C255      1.0  0.94052  0.29952  0.44758  1.0000
  H   H446      1.0  0.62698  0.10291  0.56243  1.0000
  H   H447      1.0  0.88091  0.11492  0.53509  1.0000
  C   C256      1.0  0.53933  0.42501  0.55647  1.0000
  N   N14       1.0  0.91441  0.18083  0.46650  1.0000
  C   C257      1.0  0.46709  0.01355  0.52481  1.0000
  H   H448      1.0  0.81931  0.40192  0.66359  1.0000
  H   H449      1.0  0.73075  0.04445  0.61080  1.0000
  C   C258      1.0  0.87235  0.14054  0.45551  1.0000
  H   H450      1.0  0.89335  0.18698  0.52825  1.0000
  H   H451      1.0  0.47502  0.99221  0.46406  1.0000
  H   H452      1.0  0.53052  0.29852  0.56145  1.0000
  H   H453      1.0  0.51536  0.00672  0.61328  1.0000
  C   C259      1.0  0.95154  0.18002  0.44439  1.0000
  H   H454      1.0  0.68199  0.13838  0.66295  1.0000
  H   H455      1.0  0.47670  0.42320  0.44343  1.0000
  H   H456      1.0  0.92973  0.11906  0.59132  1.0000
  H   H457      1.0  0.70700  0.98168  0.65850  1.0000
  H   H458      1.0  0.93355  0.29807  0.41365  1.0000
  C   C260      1.0  0.91539  0.14090  0.53349  1.0000
  H   H459      1.0  0.60637  0.45173  0.53548  1.0000
  H   H460      1.0  0.82367  0.35453  0.65382  1.0000
  C   C261      1.0  0.52400  0.98592  0.55242  1.0000
  H   H461      1.0  0.63031  0.99175  0.61880  1.0000
  C   C262      1.0  0.51292  0.98179  0.51008  1.0000
  H   H462      1.0  0.81201  0.08619  0.36701  1.0000
  H   H463      1.0  0.96065  0.26909  0.49295  1.0000
  H   H464      1.0  0.94949  0.21003  0.52357  1.0000
  H   H465      1.0  0.95517  0.19316  0.41216  1.0000
  H   H466      1.0  0.93314  0.12861  0.51492  1.0000
  C   C263      1.0  0.70253  0.14248  0.63534  1.0000
  H   H467      1.0  0.71651  0.09355  0.65444  1.0000
  H   H468      1.0  0.66654  0.02075  0.66032  1.0000
  S   S61       1.0  0.88795  0.26630  0.74422  1.0000
  H   H469      1.0  0.53390  0.45833  0.71238  1.0000
  H   H470      1.0  0.80183  0.30941  0.78364  1.0000
  Fe  Fe28      1.0  0.71928  0.09403  0.91082  1.0000
  S   S62       1.0  0.69580  0.13435  0.94255  1.0000
  S   S63       1.0  0.74002  0.10084  0.84189  1.0000
  H   H471      1.0  0.58535  0.41197  0.69658  1.0000
  H   H472      1.0  0.55406  0.04416  0.68789  1.0000
  Fe  Fe29      1.0  0.64412  0.07283  0.97334  1.0000
  C   C264      1.0  0.93696  0.31504  0.93152  1.0000
  S   S64       1.0  0.76468  0.10072  0.96239  1.0000
  S   S65       1.0  0.66433  0.03165  0.93723  1.0000
  H   H473      1.0  0.82326  0.38432  0.73821  1.0000
  H   H474      1.0  0.83125  0.10740  0.89426  1.0000
  H   H475      1.0  0.56591  0.44976  0.74900  1.0000
  C   C265      1.0  0.84626  0.21993  0.77054  1.0000
  C   C266      1.0  0.83994  0.22225  0.81370  1.0000
  C   C267      1.0  0.80742  0.18646  0.83591  1.0000
  C   C268      1.0  0.78102  0.14748  0.81532  1.0000
  C   C269      1.0  0.78748  0.14511  0.77220  1.0000
  C   C270      1.0  0.81975  0.18105  0.74992  1.0000
  H   H476      1.0  0.86016  0.25202  0.83007  1.0000
  H   H477      1.0  0.80279  0.18892  0.86896  1.0000
  H   H478      1.0  0.76743  0.11519  0.75590  1.0000
  H   H479      1.0  0.82438  0.17852  0.71689  1.0000
  H   H480      1.0  0.87400  0.30912  0.94454  1.0000
  Fe  Fe30      1.0  0.73941  0.13852  0.99547  1.0000
  C   C271      1.0  0.77389  0.00896  0.91215  1.0000
  H   H481      1.0  0.50056  0.43459  0.78335  1.0000
  C   C272      1.0  0.89366  0.44363  0.78039  1.0000
  H   H482      1.0  0.60763  0.01854  0.68999  1.0000
  H   H483      1.0  0.88901  0.45039  0.84811  1.0000
  C   C273      1.0  0.91841  0.26563  0.93471  1.0000
  C   C274      1.0  0.83180  0.37688  0.93756  1.0000
  H   H484      1.0  0.89814  0.39206  0.68406  1.0000
  H   H485      1.0  0.88699  0.25063  0.91772  1.0000
  H   H486      1.0  0.48056  0.02052  0.96602  1.0000
  C   C275      1.0  0.91823  0.38936  0.77074  1.0000
  C   C276      1.0  0.56683  0.47383  0.72672  1.0000
  H   H487      1.0  0.88850  0.40578  0.97611  1.0000
  H   H488      1.0  0.91964  0.19510  0.96029  1.0000
  H   H489      1.0  0.92693  0.38288  0.80226  1.0000
  C   C277      1.0  0.85171  0.37133  0.80981  1.0000
  C   C278      1.0  0.87985  0.17412  0.90476  1.0000
  Fe  Fe31      1.0  0.70808  0.04241  0.99192  1.0000
  H   H490      1.0  0.47095  0.07527  0.92712  1.0000
  H   H491      1.0  0.76368  0.02434  0.88802  1.0000
  H   H492      1.0  0.80248  0.00736  0.90071  1.0000
  H   H493      1.0  0.93829  0.32469  0.89835  1.0000
  H   H494      1.0  0.79152  0.26408  0.84370  1.0000
  N   N15       1.0  0.88016  0.39694  0.77340  1.0000
  H   H495      1.0  0.90901  0.35952  0.75255  1.0000
  H   H496      1.0  0.58433  0.05759  0.73601  1.0000
  C   C279      1.0  0.48627  0.01249  0.99700  1.0000
  H   H497      1.0  0.87112  0.38009  0.83906  1.0000
  H   H498      1.0  0.50803  0.12053  0.89569  1.0000
  H   H499      1.0  0.54961  0.43210  0.95438  1.0000
  C   C280      1.0  0.81012  0.29957  0.84802  1.0000
  C   C281      1.0  0.86337  0.12602  0.90968  1.0000
  H   H500      1.0  0.55491  0.43916  0.89863  1.0000
  H   H501      1.0  0.85711  0.43222  0.97682  1.0000
  C   C282      1.0  0.51717  0.13164  0.96232  1.0000
  H   H502      1.0  0.85035  0.39615  0.91000  1.0000
  H   H503      1.0  0.65112  0.07286  0.69744  1.0000
  H   H504      1.0  0.88605  0.11732  0.89470  1.0000
  H   H505      1.0  0.88167  0.18096  0.87084  1.0000
  H   H506      1.0  0.85223  0.31142  0.79542  1.0000
  C   C283      1.0  0.82914  0.32156  0.80615  1.0000
  H   H507      1.0  0.85519  0.18034  0.91919  1.0000
  C   C284      1.0  0.57293  0.44916  0.92857  1.0000
  C   C285      1.0  0.85274  0.38130  0.73444  1.0000
  H   H508      1.0  0.91000  0.25585  0.96799  1.0000
  C   C286      1.0  0.92462  0.20154  0.92613  1.0000
  H   H509      1.0  0.82928  0.34483  0.93599  1.0000
  H   H510      1.0  0.54140  0.12084  0.96269  1.0000
  C   C287      1.0  0.58677  0.06401  0.70189  1.0000
  H   H511      1.0  0.59771  0.09864  0.69703  1.0000
  H   H512      1.0  0.82574  0.37950  0.81516  1.0000
  H   H513      1.0  0.91001  0.32429  0.98897  1.0000
  H   H514      1.0  0.94499  0.18780  0.91640  1.0000
  C   C288      1.0  0.96117  0.42609  0.75179  1.0000
  H   H515      1.0  0.54710  0.45392  0.81660  1.0000
  H   H516      1.0  0.78768  0.30981  0.86066  1.0000
  H   H517      1.0  0.79873  0.37267  0.93643  1.0000
  H   H518      1.0  0.89283  0.43867  0.69457  1.0000
  H   H519      1.0  0.94527  0.23397  0.78854  1.0000
  C   C289      1.0  0.87518  0.40308  0.69285  1.0000
  H   H520      1.0  0.83646  0.30728  0.87084  1.0000
  C   C290      1.0  0.85512  0.40040  0.97738  1.0000
  C   C291      1.0  0.95480  0.26025  0.87228  1.0000
  H   H521      1.0  0.91992  0.36307  0.94864  1.0000
  H   H522      1.0  0.86505  0.44821  0.77740  1.0000
  S   S66       1.0  0.57271  0.05648  0.97405  1.0000
  H   H523      1.0  0.53454  0.16693  0.95725  1.0000
  H   H524      1.0  0.59789  0.43930  0.92847  1.0000
  N   N16       1.0  0.94743  0.24949  0.91822  1.0000
  H   H525      1.0  0.84085  0.34650  0.72920  1.0000
  C   C292      1.0  0.90828  0.32854  0.95484  1.0000
  H   H526      1.0  0.85959  0.11693  0.94326  1.0000
  H   H527      1.0  0.78367  0.02937  0.94056  1.0000
  H   H528      1.0  0.92347  0.25025  0.85630  1.0000
  H   H529      1.0  0.95637  0.43623  0.72058  1.0000
  C   C293      1.0  0.48801  0.11090  0.92457  1.0000
  H   H530      1.0  0.46751  0.46416  0.83238  1.0000
  C   C294      1.0  0.61905  0.05283  0.68242  1.0000
  H   H531      1.0  0.49254  0.19402  0.99114  1.0000
  H   H532      1.0  0.47974  0.42665  0.85752  1.0000
  S   S67       1.0  0.47082  0.43660  0.96246  1.0000
  H   H533      1.0  0.91647  0.46465  0.75583  1.0000
  C   C295      1.0  0.49430  0.45889  0.84245  1.0000
  C   C296      1.0  0.52201  0.46086  0.80505  1.0000
  H   H534      1.0  0.93854  0.45278  0.83227  1.0000
  C   C297      1.0  0.91449  0.46240  0.82350  1.0000
  C   C298      1.0  0.49054  0.11857  0.00358  1.0000
  H   H535      1.0  0.55740  0.26724  0.99725  1.0000
  H   H536      1.0  0.96335  0.20620  0.85152  1.0000
  Fe  Fe32      1.0  0.90324  0.27681  0.67374  1.0000
  H   H537      1.0  0.76072  0.17203  0.67401  1.0000
  H   H538      1.0  0.91793  0.82900  0.10756  1.0000
  Fe  Fe33      1.0  0.62344  0.74857  0.07256  1.0000
  S   S68       1.0  0.68819  0.77628  0.10359  1.0000
  H   H539      1.0  0.66718  0.58727  0.11349  1.0000
  Fe  Fe34      1.0  0.59535  0.65605  0.10108  1.0000
  S   S69       1.0  0.65842  0.67896  0.13583  1.0000
  S   S70       1.0  0.54553  0.58336  0.10339  1.0000
  Fe  Fe35      1.0  0.65095  0.73484  0.15867  1.0000
  S   S71       1.0  0.67138  0.76479  0.22449  1.0000
  Fe  Fe36      1.0  0.68967  0.71844  0.07828  1.0000
  S   S72       1.0  0.74792  0.72648  0.04091  1.0000
  S   S73       1.0  0.58554  0.70890  0.12842  1.0000
  S   S74       1.0  0.62721  0.69364  0.04278  1.0000
  H   H540      1.0  0.85503  0.76697  0.04062  1.0000
  H   H541      1.0  0.74707  0.91281  0.16996  1.0000
  C   C299      1.0  0.79459  0.62838  0.03070  1.0000
  H   H542      1.0  0.68216  0.54431  0.06130  1.0000
  H   H543      1.0  0.57717  0.91564  0.14155  1.0000
  C   C300      1.0  0.64949  0.54091  0.06267  1.0000
  C   C301      1.0  0.53796  0.77991  0.13834  1.0000
  H   H544      1.0  0.82584  0.50968  0.04799  1.0000
  C   C302      1.0  0.64311  0.55309  0.10676  1.0000
  C   C303      1.0  0.52457  0.54307  0.06367  1.0000
  H   H545      1.0  0.65976  0.95078  0.21214  1.0000
  H   H546      1.0  0.61351  0.66964  0.32124  1.0000
  C   C304      1.0  0.76436  0.68754  0.03746  1.0000
  C   C305      1.0  0.76863  0.62644  0.06467  1.0000
  C   C306      1.0  0.75372  0.65601  0.06815  1.0000
  H   H547      1.0  0.76033  0.60220  0.08859  1.0000
  H   H548      1.0  0.73442  0.65477  0.09479  1.0000
  C   C307      1.0  0.62503  0.83681  0.31220  1.0000
  C   C308      1.0  0.88868  0.79066  0.05071  1.0000
  C   C309      1.0  0.67846  0.81669  0.29149  1.0000
  C   C310      1.0  0.65249  0.79206  0.25776  1.0000
  C   C311      1.0  0.61222  0.78925  0.25209  1.0000
  C   C312      1.0  0.59875  0.81156  0.27898  1.0000
  C   C313      1.0  0.59229  0.68265  0.31194  1.0000
  H   H549      1.0  0.70957  0.81899  0.29647  1.0000
  H   H550      1.0  0.59147  0.76984  0.22691  1.0000
  H   H551      1.0  0.56767  0.80931  0.27392  1.0000
  C   C314      1.0  0.67963  0.86771  0.04556  1.0000
  H   H552      1.0  0.71919  0.87082  0.13157  1.0000
  H   H553      1.0  0.57696  0.95265  0.28162  1.0000
  H   H554      1.0  0.61725  0.93777  0.29242  1.0000
  H   H555      1.0  0.69388  0.84890  0.05575  1.0000
  S   S75       1.0  0.92993  0.61063  0.01006  1.0000
  C   C315      1.0  0.57641  0.82532  0.13181  1.0000
  H   H556      1.0  0.91111  0.67960  0.13099  1.0000
  H   H557      1.0  0.60991  0.54822  0.11040  1.0000
  H   H558      1.0  0.87139  0.51797  0.07934  1.0000
  C   C316      1.0  0.72095  0.87894  0.16520  1.0000
  C   C317      1.0  0.67743  0.87239  0.18056  1.0000
  S   S76       1.0  0.81215  0.59030  0.02671  1.0000
  C   C318      1.0  0.59149  0.92390  0.22899  1.0000
  H   H559      1.0  0.64732  0.53249  0.12998  1.0000
  H   H560      1.0  0.62964  0.93657  0.00861  1.0000
  N   N17       1.0  0.62235  0.89870  0.16889  1.0000
  H   H561      1.0  0.53257  0.76076  0.10948  1.0000
  H   H562      1.0  0.68104  0.88057  0.21421  1.0000
  H   H563      1.0  0.50797  0.78099  0.14523  1.0000
  H   H564      1.0  0.86609  0.64683  0.09676  1.0000
  C   C319      1.0  0.66494  0.83897  0.31844  1.0000
  H   H565      1.0  0.91229  0.68761  0.03526  1.0000
  C   C320      1.0  0.64516  0.57027  0.02961  1.0000
  H   H566      1.0  0.86436  0.71152  0.06852  1.0000
  H   H567      1.0  0.85459  0.83494  0.12916  1.0000
  C   C321      1.0  0.88547  0.80493  0.09562  1.0000
  C   C322      1.0  0.66379  0.90056  0.15524  1.0000
  H   H568      1.0  0.58021  0.93942  0.20627  1.0000
  H   H569      1.0  0.61117  0.91035  0.10502  1.0000
  H   H570      1.0  0.55456  0.85247  0.17915  1.0000
  C   C323      1.0  0.90014  0.73217  0.07278  1.0000
  C   C324      1.0  0.85686  0.82544  0.09668  1.0000
  H   H571      1.0  0.56853  0.83963  0.10491  1.0000
  C   C325      1.0  0.61778  0.87232  0.02186  1.0000
  H   H572      1.0  0.61414  0.56968  0.03611  1.0000
  H   H573      1.0  0.65328  0.83770  0.17721  1.0000
  C   C326      1.0  0.50158  0.49927  0.07534  1.0000
  H   H574      1.0  0.54451  0.76353  0.16439  1.0000
  H   H575      1.0  0.63469  0.89924  0.23520  1.0000
  H   H576      1.0  0.60485  0.82216  0.12341  1.0000
  H   H577      1.0  0.59031  0.83582  0.19795  1.0000
  C   C327      1.0  0.70555  0.91275  0.04222  1.0000
  H   H578      1.0  0.49712  0.49083  0.10813  1.0000
  H   H579      1.0  0.60359  0.69879  0.28117  1.0000
  C   C328      1.0  0.63565  0.84719  0.03514  1.0000
  H   H580      1.0  0.57464  0.72859  0.33243  1.0000
  H   H581      1.0  0.72928  0.85748  0.18300  1.0000
  H   H582      1.0  0.54660  0.58683  0.01162  1.0000
  N   N18       1.0  0.91765  0.77152  0.04493  1.0000
  H   H583      1.0  0.87070  0.85464  0.07659  1.0000
  H   H584      1.0  0.89880  0.81911  0.03033  1.0000
  H   H585      1.0  0.66183  0.89137  0.12188  1.0000
  H   H586      1.0  0.90505  0.74170  0.10622  1.0000
  C   C329      1.0  0.61101  0.92241  0.13696  1.0000
  H   H587      1.0  0.67134  0.60350  0.03685  1.0000
  H   H588      1.0  0.55844  0.65570  0.30829  1.0000
  C   C330      1.0  0.62938  0.91888  0.21157  1.0000
  H   H589      1.0  0.87053  0.77696  0.11723  1.0000
  S   S77       1.0  0.60249  0.79035  0.03723  1.0000
  C   C331      1.0  0.58530  0.85296  0.17164  1.0000
  H   H590      1.0  0.91549  0.64488  0.09318  1.0000
  C   C332      1.0  0.92005  0.70268  0.06662  1.0000
  H   H591      1.0  0.82352  0.80217  0.08582  1.0000
  C   C333      1.0  0.68788  0.93785  0.02852  1.0000
  C   C334      1.0  0.90201  0.66635  0.09894  1.0000
  H   H592      1.0  0.73966  0.92822  0.05001  1.0000
  C   C335      1.0  0.52975  0.55338  0.02112  1.0000
  C   C336      1.0  0.85184  0.50140  0.05129  1.0000
  H   H593      1.0  0.87294  0.51335  0.02316  1.0000
  H   H594      1.0  0.69139  0.93423  0.15674  1.0000
  C   C337      1.0  0.60520  0.95151  0.26841  1.0000
  H   H595      1.0  0.56359  0.89183  0.23734  1.0000
  H   H596      1.0  0.62487  0.50650  0.05823  1.0000
  C   C338      1.0  0.64369  0.91754  0.01889  1.0000
  H   H597      1.0  0.58374  0.85675  0.01380  1.0000
  H   H598      1.0  0.95577  0.72073  0.07019  1.0000
  C   C339      1.0  0.64163  0.97190  0.13504  1.0000
  C   C340      1.0  0.96387  0.80217  0.05786  1.0000
  H   H599      1.0  0.91982  0.54712  0.58045  1.0000
  S   S78       1.0  0.62565  0.93710  0.52389  1.0000
  Fe  Fe37      1.0  0.62382  0.90005  0.40758  1.0000
  S   S79       1.0  0.56641  0.87037  0.45109  1.0000
  Fe  Fe38      1.0  0.58377  0.93715  0.47141  1.0000
  H   H600      1.0  0.70228  0.81665  0.39386  1.0000
  Fe  Fe39      1.0  0.61340  0.87311  0.49932  1.0000
  S   S80       1.0  0.59375  0.81197  0.53650  1.0000
  H   H601      1.0  0.65878  0.75068  0.46470  1.0000
  S   S81       1.0  0.67010  0.90054  0.45553  1.0000
  Fe  Fe40      1.0  0.71194  0.68337  0.59390  1.0000
  S   S82       1.0  0.68495  0.62898  0.54776  1.0000
  S   S83       1.0  0.73051  0.75109  0.57304  1.0000
  C   C341      1.0  0.65873  0.76143  0.43215  1.0000
  S   S84       1.0  0.69187  0.56969  0.62255  1.0000
  Fe  Fe41      1.0  0.73642  0.61614  0.57327  1.0000
  S   S85       1.0  0.77777  0.60076  0.53025  1.0000
  Fe  Fe42      1.0  0.64285  0.58802  0.60091  1.0000
  S   S86       1.0  0.56958  0.53929  0.60386  1.0000
  S   S87       1.0  0.76594  0.67283  0.61626  1.0000
  S   S88       1.0  0.66729  0.64371  0.64581  1.0000
  H   H602      1.0  0.72828  0.80279  0.43419  1.0000
  C   C342      1.0  0.93519  0.60439  0.66169  1.0000
  C   C343      1.0  0.83379  0.63676  0.52057  1.0000
  C   C344      1.0  0.85668  0.67624  0.54118  1.0000
  C   C345      1.0  0.90118  0.70382  0.53297  1.0000
  C   C346      1.0  0.92344  0.69229  0.50431  1.0000
  C   C347      1.0  0.90056  0.65292  0.48350  1.0000
  C   C348      1.0  0.85602  0.62521  0.49178  1.0000
  H   H603      1.0  0.84017  0.68545  0.56358  1.0000
  H   H604      1.0  0.91876  0.73430  0.54898  1.0000
  H   H605      1.0  0.91702  0.64414  0.46052  1.0000
  H   H606      1.0  0.83862  0.59482  0.47551  1.0000
  C   C349      1.0  0.53901  0.53445  0.52255  1.0000
  C   C350      1.0  0.52892  0.52271  0.56452  1.0000
  C   C351      1.0  0.52460  0.65463  0.46666  1.0000
  C   C352      1.0  0.69935  0.80542  0.42665  1.0000
  C   C353      1.0  0.63195  0.79510  0.54598  1.0000
  C   C354      1.0  0.67624  0.82239  0.53838  1.0000
  C   C355      1.0  0.70592  0.80839  0.54696  1.0000
  C   C356      1.0  0.69164  0.76679  0.56249  1.0000
  C   C357      1.0  0.64729  0.73921  0.56962  1.0000
  C   C358      1.0  0.61766  0.75354  0.56184  1.0000
  H   H607      1.0  0.68777  0.85466  0.52682  1.0000
  H   H608      1.0  0.74020  0.83014  0.54217  1.0000
  H   H609      1.0  0.63592  0.70717  0.58183  1.0000
  H   H610      1.0  0.58353  0.73235  0.56823  1.0000
  C   C359      1.0  0.93914  0.68765  0.63931  1.0000
  C   C360      1.0  0.56782  0.69806  0.46256  1.0000
  C   C361      1.0  0.57808  0.69316  0.38746  1.0000
  C   C362      1.0  0.92714  0.72237  0.64742  1.0000
  H   H611      1.0  0.82334  0.91824  0.46576  1.0000
  H   H612      1.0  0.50918  0.69873  0.40196  1.0000
  H   H613      1.0  0.93134  0.79985  0.41131  1.0000
  H   H614      1.0  0.59410  0.69068  0.46889  1.0000
  S   S89       1.0  0.63834  0.96762  0.42411  1.0000
  H   H615      1.0  0.51513  0.73158  0.47400  1.0000
  H   H616      1.0  0.54752  0.75026  0.38256  1.0000
  C   C363      1.0  0.91469  0.56984  0.56141  1.0000
  H   H617      1.0  0.66166  0.73896  0.41058  1.0000
  C   C364      1.0  0.53898  0.72923  0.41069  1.0000
  H   H618      1.0  0.54764  0.62900  0.51602  1.0000
  C   C365      1.0  0.82383  0.56279  0.60744  1.0000
  H   H619      1.0  0.90390  0.82994  0.61010  1.0000
  H   H620      1.0  0.68580  0.85857  0.34347  1.0000
  H   H621      1.0  0.75842  0.51805  0.58702  1.0000
  H   H622      1.0  0.80047  0.87434  0.42916  1.0000
  C   C366      1.0  0.80662  0.88264  0.46280  1.0000
  H   H623      1.0  0.91207  0.62794  0.56536  1.0000
  H   H624      1.0  0.56980  0.71941  0.48863  1.0000
  C   C367      1.0  0.50584  0.51823  0.49218  1.0000
  C   C368      1.0  0.61705  0.76382  0.42410  1.0000
  H   H625      1.0  0.61529  0.78332  0.45017  1.0000
  H   H626      1.0  0.52319  0.63099  0.44354  1.0000
  H   H627      1.0  0.55419  0.78317  0.45301  1.0000
  H   H628      1.0  0.59880  0.67968  0.39738  1.0000
  H   H629      1.0  0.81243  0.58338  0.62215  1.0000
  C   C369      1.0  0.52033  0.63489  0.51000  1.0000
  C   C370      1.0  0.94364  0.58109  0.52279  1.0000
  Fe  Fe43      1.0  0.67967  0.96517  0.47624  1.0000
  C   C371      1.0  0.92399  0.61101  0.58582  1.0000
  H   H630      1.0  0.90383  0.72107  0.62373  1.0000
  H   H631      1.0  0.77242  0.50443  0.63661  1.0000
  N   N19       1.0  0.83876  0.79660  0.49468  1.0000
  C   C372      1.0  0.81035  0.74824  0.49213  1.0000
  C   C373      1.0  0.84960  0.81072  0.53978  1.0000
  C   C374      1.0  0.81302  0.81624  0.47758  1.0000
  C   C375      1.0  0.87953  0.81309  0.46872  1.0000
  C   C376      1.0  0.90696  0.79111  0.47527  1.0000
  C   C377      1.0  0.79479  0.72935  0.44786  1.0000
  C   C378      1.0  0.83499  0.86606  0.48138  1.0000
  C   C379      1.0  0.85501  0.78010  0.57014  1.0000
  H   H632      1.0  0.86329  0.53529  0.62484  1.0000
  H   H633      1.0  0.62178  0.78357  0.39559  1.0000
  C   C380      1.0  0.77295  0.68025  0.44846  1.0000
  H   H634      1.0  0.78080  0.73737  0.51177  1.0000
  H   H635      1.0  0.82681  0.73175  0.50559  1.0000
  H   H636      1.0  0.87942  0.84300  0.54167  1.0000
  H   H637      1.0  0.82329  0.81471  0.55423  1.0000
  H   H638      1.0  0.78078  0.80181  0.49351  1.0000
  H   H639      1.0  0.80599  0.80874  0.44384  1.0000
  H   H640      1.0  0.87171  0.81118  0.43487  1.0000
  H   H641      1.0  0.90191  0.84790  0.47472  1.0000
  H   H642      1.0  0.88751  0.75574  0.47121  1.0000
  H   H643      1.0  0.60092  0.49987  0.66652  1.0000
  H   H644      1.0  0.77057  0.73762  0.43611  1.0000
  H   H645      1.0  0.82221  0.74156  0.42546  1.0000
  H   H646      1.0  0.86633  0.88234  0.46434  1.0000
  H   H647      1.0  0.84105  0.87641  0.51450  1.0000
  H   H648      1.0  0.82313  0.75065  0.57506  1.0000
  H   H649      1.0  0.87777  0.77035  0.55811  1.0000
  H   H650      1.0  0.79364  0.49558  0.58839  1.0000
  C   C381      1.0  0.78475  0.51727  0.60486  1.0000
  H   H651      1.0  0.50211  0.82589  0.52690  1.0000
  H   H652      1.0  0.57243  0.55550  0.51338  1.0000
  H   H653      1.0  0.79651  0.67009  0.45774  1.0000
  H   H654      1.0  0.74522  0.66615  0.47067  1.0000
  H   H655      1.0  0.76061  0.66730  0.41684  1.0000
  C   C382      1.0  0.94415  0.80782  0.44364  1.0000
  N   N20       1.0  0.57550  0.72106  0.42126  1.0000
  H   H656      1.0  0.87609  0.64431  0.61553  1.0000
  H   H657      1.0  0.51414  0.52706  0.45975  1.0000
  H   H658      1.0  0.84828  0.80980  0.62681  1.0000
  H   H659      1.0  0.83472  0.57470  0.57526  1.0000
  H   H660      1.0  0.58696  0.48953  0.53452  1.0000
  C   C383      1.0  0.86120  0.56407  0.63338  1.0000
  H   H661      1.0  0.88146  0.63723  0.66976  1.0000
  H   H662      1.0  0.54551  0.66443  0.38215  1.0000
  H   H663      1.0  0.92193  0.79870  0.50664  1.0000
  H   H664      1.0  0.77523  0.86886  0.47971  1.0000
  N   N21       1.0  0.90472  0.60478  0.62914  1.0000
  H   H665      1.0  0.88053  0.55233  0.55057  1.0000
  H   H666      1.0  0.47684  0.48620  0.60806  1.0000
  H   H667      1.0  0.51998  0.65655  0.53453  1.0000
  C   C384      1.0  0.87121  0.80083  0.61286  1.0000
  H   H668      1.0  0.51528  0.88132  0.52869  1.0000
  H   H669      1.0  0.49357  0.84734  0.57441  1.0000
  S   S90       1.0  0.53188  0.95764  0.47310  1.0000
  H   H670      1.0  0.93789  0.60174  0.50109  1.0000
  C   C385      1.0  0.52630  0.75127  0.44510  1.0000
  H   H671      1.0  0.69839  0.82937  0.44784  1.0000
  H   H672      1.0  0.93656  0.55119  0.50607  1.0000
  C   C386      1.0  0.89797  0.64223  0.63896  1.0000
  H   H673      1.0  0.91581  0.53521  0.65756  1.0000
  C   C387      1.0  0.48516  0.49531  0.57570  1.0000
  C   C388      1.0  0.49202  0.84823  0.53982  1.0000
  H   H674      1.0  0.87343  0.77754  0.63412  1.0000
  H   H675      1.0  0.49614  0.65882  0.46185  1.0000
  H   H676      1.0  0.48954  0.60352  0.51201  1.0000
  Fe  Fe44      1.0  0.71887  0.62785  0.66415  1.0000
  C   C389      1.0  0.59451  0.71500  0.34421  1.0000
  H   H677      1.0  0.95982  0.63298  0.58704  1.0000
  C   C390      1.0  0.94544  0.56730  0.65938  1.0000
  C   C391      1.0  0.48953  0.75831  0.43042  1.0000
  H   H678      1.0  0.49977  0.77956  0.40243  1.0000
  H   H679      1.0  0.48112  0.77410  0.45561  1.0000
  S   S91       1.0  0.60701  0.86621  0.34335  1.0000
  H   H680      1.0  0.62877  0.74137  0.34591  1.0000
  H   H681      1.0  0.57643  0.61007  0.66989  1.0000
  H   H682      1.0  0.95649  0.69477  0.60890  1.0000
  H   H683      1.0  0.66802  0.94685  0.61984  1.0000
  H   H684      1.0  0.85045  0.55889  0.66666  1.0000
  H   H685      1.0  0.95680  0.75468  0.64594  1.0000
  H   H686      1.0  0.96170  0.69066  0.66459  1.0000
  H   H687      1.0  0.60012  0.47428  0.58341  1.0000
  H   H688      1.0  0.96391  0.79233  0.44948  1.0000
  H   H689      1.0  0.72526  0.97315  0.60877  1.0000
  S   S92       1.0  0.73267  0.62715  0.73396  1.0000
  H   H690      1.0  0.71793  0.82490  0.77709  1.0000
  Fe  Fe45      1.0  0.89996  0.61332  0.89288  1.0000
  S   S93       1.0  0.86350  0.55536  0.93442  1.0000
  S   S94       1.0  0.88335  0.60846  0.82310  1.0000
  H   H691      1.0  0.55913  0.58244  0.76215  1.0000
  H   H692      1.0  0.61760  0.65393  0.94473  1.0000
  Fe  Fe46      1.0  0.92907  0.56882  0.95729  1.0000
  C   C392      1.0  0.90971  0.78399  0.96540  1.0000
  S   S95       1.0  0.90021  0.65947  0.94040  1.0000
  H   H693      1.0  0.64251  0.83512  0.85186  1.0000
  C   C393      1.0  0.66624  0.63689  0.96216  1.0000
  C   C394      1.0  0.56059  0.60643  0.70069  1.0000
  C   C395      1.0  0.77605  0.62357  0.75763  1.0000
  C   C396      1.0  0.80259  0.61242  0.73497  1.0000
  C   C397      1.0  0.83520  0.60798  0.75553  1.0000
  C   C398      1.0  0.84189  0.61480  0.79884  1.0000
  C   C399      1.0  0.81560  0.62629  0.82140  1.0000
  C   C400      1.0  0.78289  0.63055  0.80091  1.0000
  H   H694      1.0  0.79765  0.60676  0.70175  1.0000
  H   H695      1.0  0.85527  0.59897  0.73791  1.0000
  H   H696      1.0  0.82066  0.63209  0.85459  1.0000
  H   H697      1.0  0.76284  0.63948  0.81875  1.0000
  C   C401      1.0  0.65063  0.66145  0.93500  1.0000
  Fe  Fe47      1.0  0.96263  0.66570  0.96456  1.0000
  H   H698      1.0  0.68404  0.52501  0.92374  1.0000
  C   C402      1.0  0.70138  0.56017  0.92978  1.0000
  H   H699      1.0  0.93320  0.81882  0.96804  1.0000
  H   H700      1.0  0.68876  0.85284  0.76671  1.0000
  H   H701      1.0  0.70408  0.88142  0.95419  1.0000
  H   H702      1.0  0.66210  0.80121  0.79324  1.0000
  H   H703      1.0  0.51666  0.52887  0.95806  1.0000
  H   H704      1.0  0.74720  0.95177  0.94954  1.0000
  C   C403      1.0  0.69317  0.83209  0.78963  1.0000
  S   S96       1.0  0.94122  0.51169  0.95808  1.0000
  H   H705      1.0  0.54081  0.52568  0.69951  1.0000
  H   H706      1.0  0.91115  0.78963  0.89782  1.0000
  C   C404      1.0  0.62087  0.53840  0.76681  1.0000
  N   N22       1.0  0.68585  0.88850  0.89149  1.0000
  C   C405      1.0  0.67438  0.86555  0.85003  1.0000
  C   C406      1.0  0.64662  0.88940  0.90780  1.0000
  C   C407      1.0  0.72371  0.93345  0.88498  1.0000
  C   C408      1.0  0.57724  0.58657  0.73276  1.0000
  C   C409      1.0  0.63184  0.91643  0.88212  1.0000
  C   C410      1.0  0.70824  0.85489  0.83169  1.0000
  H   H707      1.0  0.71656  0.60211  0.98359  1.0000
  H   H708      1.0  0.73041  0.86877  0.91475  1.0000
  H   H709      1.0  0.65217  0.90127  0.94036  1.0000
  Fe  Fe48      1.0  0.86783  0.60246  0.98318  1.0000
  H   H710      1.0  0.55515  0.53068  0.80650  1.0000
  H   H711      1.0  0.66969  0.88533  0.82607  1.0000
  H   H712      1.0  0.69128  0.57637  0.90665  1.0000
  H   H713      1.0  0.60215  0.58027  0.96642  1.0000
  H   H714      1.0  0.62684  0.56864  0.78221  1.0000
  H   H715      1.0  0.69980  0.54129  0.78426  1.0000
  H   H716      1.0  0.56479  0.88221  0.90438  1.0000
  H   H717      1.0  0.61253  0.50959  0.82879  1.0000
  H   H718      1.0  0.73989  0.88464  0.82655  1.0000
  H   H719      1.0  0.71338  0.83329  0.85271  1.0000
  H   H720      1.0  0.65789  0.95063  0.87977  1.0000
  C   C411      1.0  0.59268  0.91565  0.90260  1.0000
  C   C412      1.0  0.69241  0.56849  0.97511  1.0000
  H   H721      1.0  0.76232  0.56285  0.94568  1.0000
  C   C413      1.0  0.79013  0.68931  0.00345  1.0000
  H   H722      1.0  0.69459  0.81340  0.98917  1.0000
  H   H723      1.0  0.58283  0.93543  0.88396  1.0000
  H   H724      1.0  0.88921  0.73535  0.91665  1.0000
  H   H725      1.0  0.95018  0.52375  0.85544  1.0000
  C   C414      1.0  0.74958  0.57670  0.92243  1.0000
  C   C415      1.0  0.91468  0.76938  0.92198  1.0000
  H   H726      1.0  0.63268  0.49157  0.70520  1.0000
  C   C416      1.0  0.63137  0.51353  0.79989  1.0000
  H   H727      1.0  0.61207  0.61006  0.73859  1.0000
  C   C417      1.0  0.54188  0.50505  0.78221  1.0000
  C   C418      1.0  0.66509  0.81737  0.93081  1.0000
  H   H728      1.0  0.62221  0.90339  0.85010  1.0000
  H   H729      1.0  0.75330  0.93220  0.87638  1.0000
  H   H730      1.0  0.71171  0.79620  0.94351  1.0000
  H   H731      1.0  0.79837  0.71345  0.97945  1.0000
  H   H732      1.0  0.63575  0.81401  0.94651  1.0000
  C   C419      1.0  0.61421  0.51231  0.97795  1.0000
  C   C420      1.0  0.59959  0.47854  0.69217  1.0000
  H   H733      1.0  0.68868  0.57080  0.82338  1.0000
  C   C421      1.0  0.63550  0.58746  0.95828  1.0000
  H   H734      1.0  0.71774  0.94941  0.85802  1.0000
  H   H735      1.0  0.61819  0.85618  0.90968  1.0000
  C   C422      1.0  0.57235  0.54361  0.71641  1.0000
  H   H736      1.0  0.65023  0.65314  0.90156  1.0000
  H   H737      1.0  0.65487  0.79875  0.90139  1.0000
  C   C423      1.0  0.67932  0.53816  0.81173  1.0000
  H   H738      1.0  0.75444  0.56723  0.89077  1.0000
  H   H739      1.0  0.61835  0.51303  0.90834  1.0000
  C   C424      1.0  0.69864  0.86567  0.92314  1.0000
  H   H740      1.0  0.67300  0.69662  0.93877  1.0000
  H   H741      1.0  0.63413  0.58007  0.92461  1.0000
  H   H742      1.0  0.82415  0.66113  0.97331  1.0000
  C   C425      1.0  0.68381  0.79625  0.95891  1.0000
  H   H743      1.0  0.68573  0.52055  0.83664  1.0000
  N   N23       1.0  0.57579  0.51471  0.74871  1.0000
  H   H744      1.0  0.76832  0.61236  0.92434  1.0000
  H   H745      1.0  0.60089  0.92931  0.93459  1.0000
  H   H746      1.0  0.88834  0.72412  0.99578  1.0000
  H   H747      1.0  0.69963  0.64641  0.95188  1.0000
  N   N24       1.0  0.64708  0.55951  0.98428  1.0000
  H   H748      1.0  0.56771  0.63872  0.71140  1.0000
  C   C426      1.0  0.93697  0.51156  0.82380  1.0000
  H   H749      1.0  0.92239  0.60423  0.69358  1.0000
  H   H750      1.0  0.62403  0.48149  0.78841  1.0000
  H   H751      1.0  0.64571  0.54953  0.74154  1.0000
  H   H752      1.0  0.59796  0.55349  0.69213  1.0000
  H   H753      1.0  0.56902  0.50703  0.92893  1.0000
  H   H754      1.0  0.51339  0.50582  0.76877  1.0000
  H   H755      1.0  0.91361  0.52246  0.81601  1.0000
  H   H756      1.0  0.70064  0.54838  0.99527  1.0000
  C   C427      1.0  0.73649  0.96409  0.92305  1.0000
  H   H757      1.0  0.94534  0.75535  0.99248  1.0000
  H   H758      1.0  0.70908  0.96800  0.93372  1.0000
  C   C428      1.0  0.80505  0.65985  0.00005  1.0000
  H   H759      1.0  0.52495  0.58576  0.69673  1.0000
  H   H760      1.0  0.66759  0.64805  0.99462  1.0000
  H   H761      1.0  0.87651  0.77942  0.96730  1.0000
  H   H762      1.0  0.65845  0.76241  0.96553  1.0000
  H   H763      1.0  0.62843  0.49215  0.98747  1.0000
  H   H764      1.0  0.94718  0.77253  0.91835  1.0000
  C   C429      1.0  0.49021  0.47659  0.00245  1.0000
  C   C430      1.0  0.59428  0.49794  0.93369  1.0000
  C   C431      1.0  0.51272  0.52038  0.99082  1.0000
  H   H765      1.0  0.91234  0.71802  0.67892  1.0000
  C   C432      1.0  0.91591  0.75730  0.00013  1.0000
  H   H766      1.0  0.58556  0.50218  0.99886  1.0000
  H   H767      1.0  0.95073  0.56122  0.72668  1.0000
  H   H768      1.0  0.51435  0.48345  0.86611  1.0000
