data_image0
_chemical_formula_structural       FeS2FeSH3S2FeS2FeHFeSHSFeSCS2H2C6H4CHCH3C6H4C6H3C2NC12H25C2H3CH6CHNCH6C2HCHSHFeCH2C3H2CSC4HCH2CHCH5CNH9C2SHFeH4C2HCH2NH2C2HSCH5CH2CHCH4CHCHCH3CHCH2CH2CHC2H3CH2CH3CH8FeH2SC2HC3HCHCH2CSH3C2HCSHCS4C3H2CH10CHCH2C2FeCHCH4CHC2H2CH2FeCHCHCH5CHCFeS2FeSHSHS2FeSFeHFeSHSH2CHC3H4SC6H4C6H2C2HC3HCH4CH4CHCH3CH7NCNC11H25C2H2SH5CNCHC4HC3H4CH5NH6C2H4FeH3NHCH6CH3CH4CH3C2H2S2FeSCSFeS2FeS2FeSFeS3CHSHCFeSHSC6H4C6H4C6H8C2H2CH2NCNC11H14CH3CH7C2HNH3C2HFeCH2CH5C2H2CNHCH5C4HCH5FeS2HCHC2HFeCNH10CH2CHCH4CHCHCH3CH4SHCH2CH3CHCH5CH2CH2SHCH4C3H3C2H2CH2CH4CHCH6CH6C2HFeHCHCSFeSHSFeS2FeS2FeSFeS3HS2H2FeSCSC6H4C6H4C6H4C2HCHCHC2H7CFeC2H4CHSHC2HC3NHCH5CHC2H2CHC2H2CH2FeNC9HCH11NH4SHCH3SH4NC9SCFeH8CH18SCH8CH2CHCH5CH6FeC2SCH2CSFeSHFeSFeHSHFeS2FeSCFeSFeS3FeS2FeS2FeSFeS3HSCSH3C5HC6H6C7H4C6H4FeC5H4C6H5FeH4CHSHC3NC3HC2SH2CHSHSH5CH2NH2C3H9SH3CSCHC2H4C3H2C3HNH2CH8CH5CH8CHCH2NH3FeH11CHCHCH5SH3NH2SHC2H6C2H3FeHCHC2NH3CH3C3H3CH3C2H2CHC2H2CH3C2H2CHC2NH4CH2C2HCH6CH5CH3CH3CH3CH3CH3NH3C2H3C2HCHCH6NHCH2C3HCH3C3H2CHC3H3C2H5SH2SHNHCSFeS2FeSFeHSCFeS2FeS2FeSFeS3FeS2FeS2FeSFeS3HSHSH4CH3C7H4CH2C6H4C6H5C4FeH4C6H4CH2C3HCH3CHCHC2HCFeH4CHCH9CHCH3NH3CH5CH2CHC2HC2H2C2H2SCHCH3CHSCHC3NCHC9H9CH4CH5C2SC2H6SH2CH8FeHCSH3CH3NC8H11CH5NC12H22CFeCH6C2H9CH2CH10C2H2CH2C2HCH8CHC4H7CH3SCH2C3H2SHSFeSFeSH3C2H2C2H6CHSCHCH2CH2CHC3H3CHCHSHCH6CH3NCH6C2H2CHCH2CHCHFeH3C2H3CHNH5CH2C2H3C2H3CH2CHCHC3SCSFeSFeSHC4H2C2HNCHCSHCH2CH3CHCH2C2NH3CH6CH2CHCH2CH4CH2CH4CHCH4CHCHC2H2CFeCHCHSH2CHCH3C4H3NC2H4CHC2H4FeHCH2CH3CHCH6CH3CH2CHSHSC3H2C2H2SHC4H4CHFeH4CHCH2CH5CH5FeH4C2HCH4CH2C2HSHCH2CH2CH2CH3SC2H3CHCH3C4H2CHCHNCFeCHCH3CSFeSH3CH3CHC6H5CH3CH5CH6CHCSCNH2SC2H2FeH2CH3CHCH3CH6CH2CHC3H4CH5CHC3H5C2NC2H3C2H5C2SCHFeS2FeS2FeHFeS3FeHSC2FeS2FeS2FeSFeS3FeS2FeH2FeSCS3FeSHSHSH3C6H4C6H4C6H4CHCH2CHC5H3C3H2CH4C6H6SCNC3H9CH4NC6H18CH4CH3C2H2CHNC2H5CH4NC3HCHC3H7CH4CHCH3CH3SH9C2H5CH7CHCNC8H17CHSHNHCH2FeHCHC4HFeCH2C2HC3H10SHCH2C2H3CH2C2H5CH3C4H2CHCHNH4NCH4CHC3H3CHCH3C2SCHCHCHCH6C2H6CSHNC2HSH3C2HCH2C2H2CH2CH2C2H3CH2CH4CH2FeS2FeS2FeHFeS3FeHSH2FeS2FeS2FeSFeS3FeS2FeHCFeSCS3FeSFeSHSH3C6H4C6H4C6H4CHCH4C5H3C6HC2HC6H7CHSHCHC2HC3HCH4CHCH5CNC2H5C2SH6C2H3SHCH7CH5C2NC12H11NH13C3H2CH5CH6C2H3CHCH2CH3CHC2H3CH5CH7CHCH3CH3CH4CHCH2NC2H3NH6CH3CH5CNC2HC2H2CH4CHC4H3CHC2HCHNH4CH11CNSHC4H5C3HCH2CH3CH2FeH3CH2CH5CH2FeCHC2H2C2H3SHSFeSFeS2FeS2FeSFeS3HC2S2FeSCSC6H4C6H4C6H4CH2CH6CH2CH2NC4H9CH10CH4C2H5CH2CH3CNCH2C3SCH9CH2CHFeH2CH2C2H4C2HCH7C3SH5NCH6CHCHCHC3HCHCH3CSH2CHFeH3NHCHFeHCHCHCH3CH2SHCHCSH2FeSFeS2FeS2FeSFeS3H2CS2FeSHSC6H4C6H4C6H5C2H2CH4CFeH3CHSHCH7CH2CH4C2H3CH3CFeH5CH3NCH3C2HSC2H3C5H5CH4C2H3NC2HCH3C2NHC2H3C4HCH6CH14C2H2FeH4C3HSHC2H3NCHCHCH6CH6CHC2HCHCSHC2SH4CH4CH3FeS2HS2FeCFeSHSFeS2FeSHSHSH3SH6C4H4C6H4C6H4C3H2C4H5CH8CHC2HC2HC2H2CHCHC2HCH2CH4CHC2H6CH5NH2CH2C2H2C2HCH3C3HCFeCH3CH3CH4CHCH2NHCFeSH2NHSCH3C2H2SFe2HFeS2HCSFeHFeSHSFeS2FeSHSFeSCH2SH4C5SH3NC6H4C6H4CH2CH2CHC2H3CH2CHC2H8CH2CH5CHNC2H3C2H5CHSH4CHFeH2CH2SH3CHCH4CNC11H20CHCH5C2HC2HC6H3CH2CH7SNH6CHSCHSHSC2HCH8C2H9CHC2H4CHC2H
_chemical_formula_sum              "Fe144 S288 H2304 C1296 N72"
_cell_length_a       64.7443
_cell_length_b       63.9314
_cell_length_c       39.9934
_cell_angle_alpha    90.3078
_cell_angle_beta     89.012
_cell_angle_gamma    117.685

_space_group_name_H-M_alt    "P 1"
_space_group_IT_number       1

loop_
  _space_group_symop_operation_xyz
  'x, y, z'

loop_
  _atom_site_type_symbol
  _atom_site_label
  _atom_site_symmetry_multiplicity
  _atom_site_fract_x
  _atom_site_fract_y
  _atom_site_fract_z
  _atom_site_occupancy
  Fe  Fe1       1.0  0.20888  0.32589  0.32524  1.0000
  S   S1        1.0  0.18491  0.29347  0.29670  1.0000
  S   S2        1.0  0.19752  0.34246  0.36773  1.0000
  Fe  Fe2       1.0  0.20642  0.31284  0.25141  1.0000
  S   S3        1.0  0.19526  0.31141  0.19727  1.0000
  H   H1        1.0  0.99922  0.39331  0.24466  1.0000
  H   H2        1.0  0.22896  0.29531  0.10144  1.0000
  H   H3        1.0  0.07288  0.47126  0.46826  1.0000
  S   S4        1.0  0.12015  0.34063  0.03868  1.0000
  S   S5        1.0  0.11072  0.28695  0.46685  1.0000
  Fe  Fe3       1.0  0.05387  0.29499  0.04699  1.0000
  S   S6        1.0  0.07035  0.32899  0.07532  1.0000
  S   S7        1.0  0.01426  0.27476  0.04724  1.0000
  Fe  Fe4       1.0  0.08858  0.34552  0.02720  1.0000
  H   H4        1.0  0.15550  0.29683  0.36230  1.0000
  Fe  Fe5       1.0  0.09997  0.32065  0.08464  1.0000
  S   S8        1.0  0.11135  0.32570  0.13921  1.0000
  H   H5        1.0  0.12183  0.27571  0.40146  1.0000
  S   S9        1.0  0.08214  0.28525  0.05905  1.0000
  Fe  Fe6       1.0  0.00483  0.39982  0.37523  1.0000
  S   S10       1.0  0.01979  0.37454  0.38560  1.0000
  C   C1        1.0  0.01741  0.48897  0.23703  1.0000
  S   S11       1.0  0.02105  0.46614  0.29300  1.0000
  S   S12       1.0  0.01603  0.43843  0.38463  1.0000
  H   H6        1.0  0.05618  0.45458  0.43287  1.0000
  H   H7        1.0  0.00170  0.29812  0.13993  1.0000
  C   C2        1.0  0.20915  0.20586  0.39361  1.0000
  C   C3        1.0  0.05183  0.35632  0.45753  1.0000
  C   C4        1.0  0.03621  0.35570  0.43308  1.0000
  C   C5        1.0  0.03866  0.37660  0.41825  1.0000
  C   C6        1.0  0.05714  0.39818  0.42769  1.0000
  C   C7        1.0  0.00188  0.24024  0.09592  1.0000
  H   H8        1.0  0.04951  0.34011  0.46900  1.0000
  H   H9        1.0  0.02214  0.33891  0.42570  1.0000
  H   H10       1.0  0.05956  0.41434  0.41576  1.0000
  H   H11       1.0  0.99912  0.27017  0.38408  1.0000
  C   C8        1.0  0.99710  0.25718  0.08090  1.0000
  H   H12       1.0  0.03440  0.49079  0.23018  1.0000
  C   C9        1.0  0.04928  0.26130  0.16285  1.0000
  H   H13       1.0  0.20252  0.31150  0.44179  1.0000
  H   H14       1.0  0.06446  0.23904  0.14608  1.0000
  H   H15       1.0  0.01679  0.23819  0.08747  1.0000
  C   C10       1.0  0.17140  0.31488  0.18204  1.0000
  C   C11       1.0  0.15755  0.32106  0.20295  1.0000
  C   C12       1.0  0.13916  0.32419  0.18948  1.0000
  C   C13       1.0  0.13440  0.32113  0.15507  1.0000
  C   C14       1.0  0.14807  0.31470  0.13427  1.0000
  C   C15       1.0  0.16648  0.31164  0.14770  1.0000
  H   H16       1.0  0.16115  0.32364  0.22938  1.0000
  H   H17       1.0  0.12869  0.32919  0.20575  1.0000
  H   H18       1.0  0.14457  0.31225  0.10780  1.0000
  H   H19       1.0  0.17696  0.30678  0.13130  1.0000
  C   C16       1.0  0.17282  0.32695  0.39434  1.0000
  C   C17       1.0  0.17131  0.33725  0.42480  1.0000
  C   C18       1.0  0.15214  0.32546  0.44687  1.0000
  C   C19       1.0  0.13423  0.30318  0.43869  1.0000
  C   C20       1.0  0.13560  0.29294  0.40804  1.0000
  C   C21       1.0  0.15473  0.30481  0.38589  1.0000
  H   H20       1.0  0.18516  0.35442  0.43151  1.0000
  H   H21       1.0  0.15145  0.33345  0.47049  1.0000
  H   H22       1.0  0.18915  0.30421  0.02418  1.0000
  C   C22       1.0  0.14826  0.23844  0.39539  1.0000
  C   C23       1.0  0.17360  0.25817  0.40068  1.0000
  N   N1        1.0  0.10683  0.35467  0.38944  1.0000
  C   C24       1.0  0.08983  0.36069  0.37170  1.0000
  C   C25       1.0  0.09313  0.33201  0.40889  1.0000
  C   C26       1.0  0.11969  0.37411  0.41439  1.0000
  C   C27       1.0  0.12455  0.35271  0.36620  1.0000
  C   C28       1.0  0.11665  0.34362  0.33020  1.0000
  C   C29       1.0  0.10024  0.38590  0.35655  1.0000
  C   C30       1.0  0.13605  0.37008  0.43839  1.0000
  C   C31       1.0  0.07800  0.30965  0.38821  1.0000
  C   C32       1.0  0.06192  0.28911  0.41079  1.0000
  C   C33       1.0  0.13465  0.33825  0.31209  1.0000
  C   C34       1.0  0.08304  0.38834  0.33318  1.0000
  C   C35       1.0  0.17522  0.27380  0.49478  1.0000
  H   H23       1.0  0.07560  0.35900  0.38937  1.0000
  H   H24       1.0  0.08083  0.34800  0.35143  1.0000
  H   H25       1.0  0.10495  0.32726  0.42318  1.0000
  H   H26       1.0  0.08167  0.33453  0.42790  1.0000
  H   H27       1.0  0.10712  0.37737  0.43005  1.0000
  H   H28       1.0  0.13081  0.39106  0.40122  1.0000
  H   H29       1.0  0.14030  0.37019  0.36296  1.0000
  H   H30       1.0  0.13124  0.34122  0.37771  1.0000
  H   H31       1.0  0.11475  0.35724  0.31539  1.0000
  H   H32       1.0  0.09973  0.32739  0.32987  1.0000
  H   H33       1.0  0.10400  0.39909  0.37683  1.0000
  H   H34       1.0  0.11672  0.39041  0.34250  1.0000
  H   H35       1.0  0.14779  0.36489  0.42426  1.0000
  H   H36       1.0  0.12570  0.35613  0.45694  1.0000
  H   H37       1.0  0.06667  0.31259  0.37047  1.0000
  H   H38       1.0  0.08947  0.30390  0.37431  1.0000
  H   H39       1.0  0.04976  0.29368  0.42516  1.0000
  H   H40       1.0  0.05149  0.27328  0.39537  1.0000
  H   H41       1.0  0.07223  0.28458  0.42852  1.0000
  H   H42       1.0  0.15195  0.35423  0.31097  1.0000
  H   H43       1.0  0.13650  0.32391  0.32515  1.0000
  H   H44       1.0  0.12902  0.33242  0.28610  1.0000
  H   H45       1.0  0.06648  0.38428  0.34680  1.0000
  H   H46       1.0  0.09064  0.40676  0.32366  1.0000
  H   H47       1.0  0.07925  0.37627  0.31149  1.0000
  C   C36       1.0  0.05614  0.46515  0.45498  1.0000
  C   C37       1.0  0.02117  0.39625  0.05326  1.0000
  H   H48       1.0  0.14936  0.25338  0.45927  1.0000
  H   H49       1.0  0.22392  0.17022  0.26830  1.0000
  H   H50       1.0  0.16700  0.27615  0.00858  1.0000
  C   C38       1.0  0.22890  0.14188  0.41699  1.0000
  H   H51       1.0  0.04301  0.37866  0.04283  1.0000
  H   H52       1.0  0.19772  0.18947  0.40622  1.0000
  H   H53       1.0  0.02216  0.42304  0.23855  1.0000
  H   H54       1.0  0.05698  0.40966  0.03227  1.0000
  H   H55       1.0  0.02434  0.41287  0.06605  1.0000
  H   H56       1.0  0.14030  0.39846  0.47260  1.0000
  C   C39       1.0  0.18072  0.23749  0.44685  1.0000
  H   H57       1.0  0.05873  0.26474  0.18672  1.0000
  N   N2        1.0  0.00833  0.39325  0.02094  1.0000
  C   C40       1.0  0.98309  0.48785  0.02754  1.0000
  H   H58       1.0  0.98470  0.33194  0.35932  1.0000
  H   H59       1.0  0.03191  0.24567  0.16629  1.0000
  H   H60       1.0  0.18530  0.25479  0.38318  1.0000
  H   H61       1.0  0.21348  0.13533  0.36864  1.0000
  H   H62       1.0  0.16311  0.22605  0.45792  1.0000
  H   H63       1.0  0.18753  0.26636  0.11160  1.0000
  C   C41       1.0  0.98490  0.39263  0.02745  1.0000
  C   C42       1.0  0.16761  0.26787  0.45805  1.0000
  H   H64       1.0  0.18539  0.16551  0.28831  1.0000
  C   C43       1.0  0.21455  0.23563  0.35214  1.0000
  H   H65       1.0  0.05404  0.25034  0.11283  1.0000
  S   S13       1.0  0.09098  0.37921  0.49649  1.0000
  H   H66       1.0  0.00224  0.26764  0.16586  1.0000
  Fe  Fe7       1.0  0.00167  0.43842  0.33326  1.0000
  C   C44       1.0  0.02039  0.33290  0.11927  1.0000
  H   H67       1.0  0.99431  0.43527  0.21577  1.0000
  H   H68       1.0  0.07410  0.40093  0.08148  1.0000
  C   C45       1.0  0.21213  0.30508  0.42495  1.0000
  C   C46       1.0  0.03705  0.31525  0.16126  1.0000
  C   C47       1.0  0.05415  0.30146  0.20607  1.0000
  H   H69       1.0  0.16614  0.28304  0.44704  1.0000
  H   H70       1.0  0.01437  0.34107  0.13919  1.0000
  C   C48       1.0  0.00001  0.28392  0.21274  1.0000
  S   S14       1.0  0.06780  0.31019  0.49614  1.0000
  C   C49       1.0  0.04516  0.39626  0.05048  1.0000
  C   C50       1.0  0.05710  0.32324  0.22682  1.0000
  C   C51       1.0  0.07173  0.32630  0.25783  1.0000
  C   C52       1.0  0.00654  0.47733  0.26698  1.0000
  H   H71       1.0  0.03787  0.41863  0.46761  1.0000
  C   C53       1.0  0.00552  0.33916  0.29870  1.0000
  H   H72       1.0  0.05493  0.32773  0.15193  1.0000
  H   H73       1.0  0.03242  0.32539  0.17979  1.0000
  C   C54       1.0  0.98672  0.22518  0.12083  1.0000
  H   H74       1.0  0.07219  0.30609  0.19692  1.0000
  C   C55       1.0  0.01334  0.27564  0.18803  1.0000
  H   H75       1.0  0.19243  0.26682  0.15582  1.0000
  H   H76       1.0  0.04932  0.28644  0.22374  1.0000
  H   H77       1.0  0.00923  0.28746  0.42169  1.0000
  H   H78       1.0  0.98667  0.42401  0.25776  1.0000
  H   H79       1.0  0.00829  0.28733  0.23758  1.0000
  C   C56       1.0  0.20022  0.18330  0.28345  1.0000
  N   N3        1.0  0.03738  0.29400  0.17712  1.0000
  H   H80       1.0  0.21564  0.16131  0.38867  1.0000
  H   H81       1.0  0.00042  0.30942  0.37865  1.0000
  H   H82       1.0  0.06637  0.33955  0.21145  1.0000
  H   H83       1.0  0.04013  0.32188  0.23514  1.0000
  H   H84       1.0  0.07411  0.34236  0.27164  1.0000
  H   H85       1.0  0.06290  0.31080  0.27476  1.0000
  H   H86       1.0  0.08923  0.32838  0.25049  1.0000
  H   H87       1.0  0.12370  0.22222  0.35528  1.0000
  H   H88       1.0  0.99948  0.30004  0.20385  1.0000
  C   C57       1.0  0.22636  0.17578  0.32298  1.0000
  C   C58       1.0  0.06301  0.25472  0.13720  1.0000
  S   S15       1.0  0.20209  0.24427  0.31958  1.0000
  H   H89       1.0  0.21610  0.28183  0.45946  1.0000
  Fe  Fe8       1.0  0.21250  0.28199  0.30509  1.0000
  H   H90       1.0  0.99683  0.39529  0.46700  1.0000
  H   H91       1.0  0.16307  0.40677  0.44087  1.0000
  H   H92       1.0  0.20013  0.00029  0.15608  1.0000
  H   H93       1.0  0.06340  0.29640  0.14062  1.0000
  C   C59       1.0  0.20078  0.26897  0.13067  1.0000
  C   C60       1.0  0.00394  0.36968  0.00639  1.0000
  H   H94       1.0  0.03829  0.34569  0.11085  1.0000
  C   C61       1.0  0.15129  0.39242  0.45803  1.0000
  H   H95       1.0  0.15349  0.23028  0.34388  1.0000
  H   H96       1.0  0.06152  0.42005  0.09222  1.0000
  N   N4        1.0  0.18259  0.26101  0.43593  1.0000
  H   H97       1.0  0.08732  0.41554  0.45897  1.0000
  H   H98       1.0  0.98476  0.40035  0.08108  1.0000
  C   C62       1.0  0.20776  0.27990  0.43490  1.0000
  C   C63       1.0  0.07036  0.37786  0.46696  1.0000
  H   H99       1.0  0.01007  0.38187  0.07104  1.0000
  S   S16       1.0  0.99394  0.40092  0.32241  1.0000
  C   C64       1.0  0.98606  0.31573  0.31180  1.0000
  H   H100      1.0  0.20136  0.24948  0.49328  1.0000
  H   H101      1.0  0.19873  0.18877  0.25766  1.0000
  H   H102      1.0  0.03468  0.27672  0.12929  1.0000
  H   H103      1.0  0.03916  0.44198  0.03119  1.0000
  H   H104      1.0  0.21410  0.30627  0.12941  1.0000
  C   C65       1.0  0.05745  0.40192  0.08408  1.0000
  H   H105      1.0  0.14578  0.22104  0.40442  1.0000
  H   H106      1.0  0.20657  0.25524  0.12710  1.0000
  C   C66       1.0  0.99391  0.27801  0.40540  1.0000
  H   H107      1.0  0.21797  0.27458  0.41714  1.0000
  C   C67       1.0  0.03632  0.42799  0.49027  1.0000
  H   H108      1.0  0.14413  0.25282  0.34801  1.0000
  H   H109      1.0  0.00859  0.32874  0.09764  1.0000
  H   H110      1.0  0.01935  0.44637  0.46467  1.0000
  H   H111      1.0  0.02467  0.30220  0.11058  1.0000
  C   C68       1.0  0.04636  0.28292  0.15101  1.0000
  H   H112      1.0  0.19087  0.20110  0.46360  1.0000
  C   C69       1.0  0.19927  0.23800  0.47144  1.0000
  H   H113      1.0  0.01830  0.34843  0.31866  1.0000
  C   C70       1.0  0.03552  0.45060  0.47842  1.0000
  H   H114      1.0  0.99024  0.21177  0.13185  1.0000
  H   H115      1.0  0.08092  0.26954  0.13373  1.0000
  H   H116      1.0  0.19902  0.19614  0.30114  1.0000
  C   C71       1.0  0.98316  0.40780  0.05679  1.0000
  H   H117      1.0  0.21015  0.15948  0.32921  1.0000
  C   C72       1.0  0.01992  0.31017  0.13201  1.0000
  H   H118      1.0  0.18220  0.22748  0.42485  1.0000
  H   H119      1.0  0.04642  0.38900  0.10347  1.0000
  C   C73       1.0  0.20023  0.21446  0.36866  1.0000
  H   H120      1.0  0.17389  0.27467  0.39170  1.0000
  H   H121      1.0  0.18203  0.20459  0.36212  1.0000
  C   C74       1.0  0.07292  0.39880  0.45199  1.0000
  H   H122      1.0  0.01418  0.26054  0.20048  1.0000
  C   C75       1.0  0.14210  0.23586  0.35836  1.0000
  C   C76       1.0  0.99948  0.48073  0.46735  1.0000
  H   H123      1.0  0.13556  0.24278  0.40871  1.0000
  H   H124      1.0  0.20675  0.30546  0.39895  1.0000
  H   H125      1.0  0.01479  0.33582  0.27737  1.0000
  C   C77       1.0  0.98460  0.47511  0.27564  1.0000
  H   H126      1.0  0.00889  0.48014  0.44506  1.0000
  H   H127      1.0  0.01534  0.44164  0.00780  1.0000
  C   C78       1.0  0.00509  0.40949  0.22910  1.0000
  H   H128      1.0  0.16212  0.38861  0.47579  1.0000
  H   H129      1.0  0.22987  0.12131  0.25482  1.0000
  H   H130      1.0  0.22620  0.18944  0.34023  1.0000
  C   C79       1.0  0.19289  0.21331  0.48459  1.0000
  H   H131      1.0  0.21151  0.12963  0.30499  1.0000
  H   H132      1.0  0.99428  0.30482  0.31990  1.0000
  H   H133      1.0  0.21572  0.07003  0.13394  1.0000
  H   H134      1.0  0.21514  0.09593  0.28173  1.0000
  H   H135      1.0  0.98949  0.41575  0.48602  1.0000
  H   H136      1.0  0.02064  0.36957  0.99974  1.0000
  H   H137      1.0  0.16406  0.30254  0.00321  1.0000
  H   H138      1.0  0.00751  0.40537  0.20276  1.0000
  Fe  Fe9       1.0  0.10063  0.30572  0.01239  1.0000
  H   H139      1.0  0.99507  0.35542  0.02540  1.0000
  H   H140      1.0  0.05478  0.48090  0.44609  1.0000
  S   S17       1.0  0.22897  0.34641  0.27927  1.0000
  C   C80       1.0  0.98567  0.29538  0.39286  1.0000
  C   C81       1.0  0.22507  0.15086  0.38351  1.0000
  H   H141      1.0  0.21183  0.13115  0.42977  1.0000
  C   C82       1.0  0.98744  0.41906  0.23136  1.0000
  C   C83       1.0  0.22139  0.29370  0.12697  1.0000
  C   C84       1.0  0.22845  0.12950  0.30766  1.0000
  H   H142      1.0  0.99696  0.42635  0.05527  1.0000
  C   C85       1.0  0.22351  0.18290  0.28698  1.0000
  H   H143      1.0  0.22763  0.06491  0.17161  1.0000
  C   C86       1.0  0.03053  0.43805  0.00666  1.0000
  H   H144      1.0  0.21644  0.24469  0.45827  1.0000
  H   H145      1.0  0.22861  0.12095  0.33165  1.0000
  C   C87       1.0  0.99410  0.40160  0.49195  1.0000
  S   S18       1.0  0.08952  0.37980  0.00997  1.0000
  H   H146      1.0  0.02049  0.38066  0.49663  1.0000
  H   H147      1.0  0.99821  0.35079  0.28993  1.0000
  H   H148      1.0  0.19366  0.28747  0.49657  1.0000
  C   C88       1.0  0.17679  0.29544  0.00359  1.0000
  C   C89       1.0  0.23016  0.11392  0.27977  1.0000
  H   H149      1.0  0.98311  0.46797  0.15975  1.0000
  C   C90       1.0  0.23273  0.21787  0.40177  1.0000
  S   S19       1.0  0.23174  0.29810  0.25742  1.0000
  H   H150      1.0  0.23157  0.29803  0.17892  1.0000
  C   C91       1.0  0.23214  0.07334  0.14648  1.0000
  S   S20       1.0  0.01498  0.27999  0.55585  1.0000
  S   S21       1.0  0.02986  0.38055  0.88597  1.0000
  S   S22       1.0  0.01775  0.46616  0.80327  1.0000
  S   S23       1.0  0.01774  0.43838  0.89027  1.0000
  C   C92       1.0  0.04290  0.35917  0.93430  1.0000
  C   C93       1.0  0.04495  0.38065  0.92232  1.0000
  C   C94       1.0  0.22946  0.40238  0.68983  1.0000
  H   H151      1.0  0.03118  0.34283  0.92223  1.0000
  H   H152      1.0  0.00194  0.44658  0.52194  1.0000
  C   C95       1.0  0.98479  0.46186  0.98345  1.0000
  H   H153      1.0  0.05379  0.34195  0.97100  1.0000
  H   H154      1.0  0.16417  0.41291  0.96013  1.0000
  H   H155      1.0  0.03243  0.43588  0.55207  1.0000
  H   H156      1.0  0.04655  0.40861  0.55933  1.0000
  H   H157      1.0  0.06090  0.37872  0.56294  1.0000
  H   H158      1.0  0.21989  0.29985  0.99089  1.0000
  H   H159      1.0  0.01555  0.41742  0.75742  1.0000
  H   H160      1.0  0.99743  0.33299  0.96407  1.0000
  H   H161      1.0  0.21472  0.22156  0.88601  1.0000
  H   H162      1.0  0.14153  0.27014  0.51238  1.0000
  C   C96       1.0  0.01462  0.42280  0.54416  1.0000
  H   H163      1.0  0.00092  0.44099  0.59828  1.0000
  C   C97       1.0  0.21607  0.38105  0.61971  1.0000
  H   H164      1.0  0.06406  0.45311  0.98002  1.0000
  H   H165      1.0  0.01524  0.31625  0.61249  1.0000
  C   C98       1.0  0.04805  0.45536  0.98143  1.0000
  C   C99       1.0  0.99246  0.41386  0.71615  1.0000
  Fe  Fe10      1.0  0.00866  0.40038  0.88058  1.0000
  C   C100      1.0  0.00019  0.24260  0.60111  1.0000
  H   H166      1.0  0.17935  0.35360  0.61612  1.0000
  C   C101      1.0  0.02247  0.41220  0.99572  1.0000
  H   H167      1.0  0.00729  0.48840  0.90347  1.0000
  H   H168      1.0  0.01678  0.47592  0.95472  1.0000
  H   H169      1.0  0.08635  0.41763  0.97591  1.0000
  H   H170      1.0  0.05576  0.29820  0.92245  1.0000
  C   C102      1.0  0.01440  0.25686  0.69794  1.0000
  H   H171      1.0  0.01596  0.24709  0.67596  1.0000
  C   C103      1.0  0.02063  0.39041  0.51996  1.0000
  C   C104      1.0  0.99980  0.23848  0.72435  1.0000
  H   H172      1.0  0.02944  0.42387  0.71666  1.0000
  H   H173      1.0  0.99143  0.45908  0.57517  1.0000
  C   C105      1.0  0.21411  0.34456  0.64114  1.0000
  H   H174      1.0  0.01476  0.32215  0.65654  1.0000
  H   H175      1.0  0.01522  0.24061  0.59310  1.0000
  Fe  Fe11      1.0  0.00001  0.43655  0.84131  1.0000
  C   C106      1.0  0.01626  0.42571  0.73280  1.0000
  H   H176      1.0  0.22018  0.37672  0.59422  1.0000
  C   C107      1.0  0.99653  0.26073  0.58758  1.0000
  H   H177      1.0  0.16279  0.29999  0.50169  1.0000
  C   C108      1.0  0.20612  0.28474  0.90810  1.0000
  H   H178      1.0  0.21646  0.34022  0.61475  1.0000
  H   H179      1.0  0.19750  0.29585  0.90239  1.0000
  H   H180      1.0  0.99441  0.42290  0.69186  1.0000
  H   H181      1.0  0.22843  0.36908  0.69934  1.0000
  H   H182      1.0  0.22454  0.40060  0.62082  1.0000
  C   C109      1.0  0.18942  0.37274  0.62150  1.0000
  H   H183      1.0  0.04028  0.45256  0.95627  1.0000
  C   C110      1.0  0.16033  0.28319  0.51319  1.0000
  Fe  Fe12      1.0  0.20844  0.33468  0.82488  1.0000
  S   S24       1.0  0.19657  0.29671  0.81096  1.0000
  S   S25       1.0  0.19879  0.34862  0.87187  1.0000
  Fe  Fe13      1.0  0.19728  0.30968  0.75797  1.0000
  S   S26       1.0  0.16995  0.28967  0.71863  1.0000
  H   H184      1.0  0.16321  0.37921  0.59714  1.0000
  S   S27       1.0  0.20680  0.34697  0.77269  1.0000
  H   H185      1.0  0.16197  0.26241  0.87890  1.0000
  S   S28       1.0  0.12023  0.34028  0.52793  1.0000
  S   S29       1.0  0.11452  0.28968  0.97256  1.0000
  Fe  Fe14      1.0  0.05452  0.29731  0.54833  1.0000
  S   S30       1.0  0.07409  0.33348  0.57060  1.0000
  Fe  Fe15      1.0  0.08868  0.34562  0.51913  1.0000
  H   H186      1.0  0.16032  0.30053  0.86897  1.0000
  Fe  Fe16      1.0  0.10341  0.32432  0.57764  1.0000
  S   S31       1.0  0.12248  0.33635  0.62715  1.0000
  H   H187      1.0  0.12751  0.27799  0.90889  1.0000
  S   S32       1.0  0.08299  0.28719  0.55818  1.0000
  H   H188      1.0  0.18126  0.25330  0.85732  1.0000
  H   H189      1.0  0.22957  0.39774  0.74380  1.0000
  C   C111      1.0  0.18236  0.38558  0.59550  1.0000
  H   H190      1.0  0.05212  0.23672  0.62368  1.0000
  C   C112      1.0  0.07171  0.37969  0.97684  1.0000
  C   C113      1.0  0.05591  0.35865  0.96177  1.0000
  C   C114      1.0  0.06059  0.40172  0.93752  1.0000
  H   H191      1.0  0.02170  0.46603  0.57396  1.0000
  H   H192      1.0  0.06275  0.41842  0.92789  1.0000
  H   H193      1.0  0.11056  0.32167  0.75665  1.0000
  H   H194      1.0  0.98817  0.39519  0.71135  1.0000
  S   S33       1.0  0.99425  0.39980  0.82952  1.0000
  C   C115      1.0  0.15696  0.30287  0.69322  1.0000
  C   C116      1.0  0.15843  0.32486  0.70102  1.0000
  C   C117      1.0  0.14775  0.33475  0.68047  1.0000
  C   C118      1.0  0.13565  0.32292  0.65174  1.0000
  C   C119      1.0  0.13419  0.30095  0.64382  1.0000
  C   C120      1.0  0.14467  0.29092  0.66462  1.0000
  H   H195      1.0  0.16757  0.33413  0.72311  1.0000
  H   H196      1.0  0.14894  0.35173  0.68684  1.0000
  H   H197      1.0  0.12491  0.29164  0.62182  1.0000
  H   H198      1.0  0.14335  0.27385  0.65846  1.0000
  C   C121      1.0  0.17510  0.33186  0.89923  1.0000
  C   C122      1.0  0.17263  0.34229  0.92901  1.0000
  C   C123      1.0  0.15390  0.32972  0.95137  1.0000
  C   C124      1.0  0.13753  0.30651  0.94422  1.0000
  C   C125      1.0  0.14004  0.29601  0.91448  1.0000
  C   C126      1.0  0.15868  0.30867  0.89195  1.0000
  H   H199      1.0  0.18534  0.36020  0.93488  1.0000
  H   H200      1.0  0.15238  0.33780  0.97449  1.0000
  C   C127      1.0  0.03853  0.27448  0.71166  1.0000
  C   C128      1.0  0.10431  0.33413  0.74763  1.0000
  H   H201      1.0  0.04062  0.31426  0.69432  1.0000
  C   C129      1.0  0.03367  0.30257  0.64288  1.0000
  C   C130      1.0  0.01633  0.49333  0.75134  1.0000
  C   C131      1.0  0.02576  0.32117  0.63559  1.0000
  H   H202      1.0  0.04071  0.36113  0.53144  1.0000
  C   C132      1.0  0.22235  0.33079  0.66468  1.0000
  H   H203      1.0  0.00438  0.26631  0.69131  1.0000
  H   H204      1.0  0.04451  0.26894  0.64241  1.0000
  H   H205      1.0  0.03485  0.28466  0.73141  1.0000
  H   H206      1.0  0.99712  0.24717  0.74695  1.0000
  C   C133      1.0  0.07399  0.40123  0.96461  1.0000
  H   H207      1.0  0.05575  0.24612  0.68476  1.0000
  H   H208      1.0  0.22511  0.26253  0.94528  1.0000
  H   H209      1.0  0.05881  0.40474  0.52045  1.0000
  H   H210      1.0  0.21750  0.13682  0.87167  1.0000
  C   C134      1.0  0.99906  0.43544  0.54428  1.0000
  H   H211      1.0  0.19497  0.33668  0.64569  1.0000
  C   C135      1.0  0.04373  0.39639  0.53810  1.0000
  H   H212      1.0  0.17651  0.29144  0.95045  1.0000
  H   H213      1.0  0.18406  0.37639  0.64640  1.0000
  H   H214      1.0  0.19121  0.40492  0.60009  1.0000
  C   C136      1.0  0.04371  0.37408  0.55180  1.0000
  H   H215      1.0  0.10139  0.41620  0.83110  1.0000
  H   H216      1.0  0.02196  0.44485  0.73652  1.0000
  H   H217      1.0  0.00772  0.40970  0.56497  1.0000
  H   H218      1.0  0.07477  0.23231  0.64301  1.0000
  H   H219      1.0  0.08250  0.25807  0.61752  1.0000
  H   H220      1.0  0.21835  0.29547  0.67154  1.0000
  H   H221      1.0  0.19900  0.27180  0.97704  1.0000
  N   N5        1.0  0.01619  0.41107  0.51192  1.0000
  C   C137      1.0  0.20800  0.29082  0.96985  1.0000
  N   N6        1.0  0.11368  0.36251  0.89898  1.0000
  C   C138      1.0  0.09780  0.36867  0.87863  1.0000
  C   C139      1.0  0.09922  0.33872  0.91533  1.0000
  C   C140      1.0  0.12351  0.38065  0.92653  1.0000
  C   C141      1.0  0.13372  0.36262  0.87876  1.0000
  C   C142      1.0  0.12933  0.35563  0.84130  1.0000
  C   C143      1.0  0.10860  0.39454  0.86587  1.0000
  C   C144      1.0  0.13823  0.37617  0.95298  1.0000
  C   C145      1.0  0.08711  0.31735  0.89159  1.0000
  C   C146      1.0  0.06990  0.29531  0.91070  1.0000
  C   C147      1.0  0.14925  0.35202  0.82599  1.0000
  C   C148      1.0  0.09372  0.39737  0.83878  1.0000
  H   H222      1.0  0.04106  0.33877  0.63158  1.0000
  H   H223      1.0  0.08198  0.36558  0.89372  1.0000
  H   H224      1.0  0.09091  0.35689  0.85676  1.0000
  H   H225      1.0  0.11009  0.33393  0.93170  1.0000
  H   H226      1.0  0.08564  0.33953  0.93204  1.0000
  H   H227      1.0  0.10922  0.38231  0.94018  1.0000
  H   H228      1.0  0.13500  0.39843  0.91580  1.0000
  H   H229      1.0  0.14920  0.38046  0.87897  1.0000
  H   H230      1.0  0.13982  0.35082  0.89073  1.0000
  H   H231      1.0  0.12819  0.36982  0.82685  1.0000
  H   H232      1.0  0.11295  0.33916  0.83755  1.0000
  H   H233      1.0  0.10947  0.40643  0.88682  1.0000
  H   H234      1.0  0.12652  0.40055  0.85570  1.0000
  H   H235      1.0  0.15138  0.37204  0.94080  1.0000
  H   H236      1.0  0.12677  0.36131  0.96963  1.0000
  H   H237      1.0  0.07710  0.32059  0.87195  1.0000
  H   H238      1.0  0.10040  0.31317  0.87975  1.0000
  H   H239      1.0  0.06191  0.28015  0.89326  1.0000
  H   H240      1.0  0.07894  0.29067  0.93040  1.0000
  H   H241      1.0  0.14644  0.34837  0.79882  1.0000
  H   H242      1.0  0.16628  0.36802  0.82929  1.0000
  H   H243      1.0  0.14998  0.33674  0.83795  1.0000
  H   H244      1.0  0.09299  0.38665  0.81645  1.0000
  H   H245      1.0  0.07570  0.39178  0.84844  1.0000
  H   H246      1.0  0.19483  0.24656  0.91235  1.0000
  C   C149      1.0  0.06038  0.27808  0.65769  1.0000
  C   C150      1.0  0.04942  0.30918  0.67404  1.0000
  H   H247      1.0  0.06529  0.32577  0.66667  1.0000
  H   H248      1.0  0.07387  0.29104  0.64027  1.0000
  S   S34       1.0  0.07065  0.31209  0.99813  1.0000
  H   H249      1.0  0.15768  0.23263  0.88328  1.0000
  H   H250      1.0  0.21655  0.28585  0.88517  1.0000
  H   H251      1.0  0.10412  0.34525  0.76894  1.0000
  H   H252      1.0  0.09331  0.31511  0.68617  1.0000
  H   H253      1.0  0.11667  0.34585  0.72819  1.0000
  C   C151      1.0  0.18693  0.25864  0.91102  1.0000
  N   N7        1.0  0.05632  0.29104  0.68671  1.0000
  C   C152      1.0  0.22050  0.37607  0.68085  1.0000
  H   H254      1.0  0.16553  0.28662  0.53978  1.0000
  C   C153      1.0  0.18975  0.30017  0.96993  1.0000
  C   C154      1.0  0.06941  0.24581  0.63576  1.0000
  C   C155      1.0  0.07978  0.32067  0.73347  1.0000
  C   C156      1.0  0.22192  0.40501  0.72537  1.0000
  H   H255      1.0  0.04573  0.26422  0.72526  1.0000
  C   C157      1.0  0.07928  0.30418  0.70446  1.0000
  C   C158      1.0  0.21367  0.30534  0.65294  1.0000
  C   C159      1.0  0.06818  0.25927  0.66678  1.0000
  H   H256      1.0  0.06796  0.31029  0.75427  1.0000
  H   H257      1.0  0.08479  0.29168  0.71555  1.0000
  H   H258      1.0  0.01239  0.40981  0.97247  1.0000
  H   H259      1.0  0.07452  0.33397  0.72498  1.0000
  C   C160      1.0  0.17106  0.25140  0.88071  1.0000
  H   H260      1.0  0.18676  0.38201  0.56984  1.0000
  H   H261      1.0  0.05300  0.47377  0.98928  1.0000
  H   H262      1.0  0.22182  0.30492  0.62846  1.0000
  H   H263      1.0  0.02997  0.36572  0.57146  1.0000
  H   H264      1.0  0.13887  0.40293  0.98769  1.0000
  N   N8        1.0  0.22188  0.29443  0.93779  1.0000
  H   H265      1.0  0.08585  0.26764  0.67770  1.0000
  H   H266      1.0  0.17562  0.25568  0.93345  1.0000
  H   H267      1.0  0.01795  0.28541  0.64579  1.0000
  H   H268      1.0  0.21835  0.25308  0.84632  1.0000
  H   H269      1.0  0.04343  0.30141  0.62050  1.0000
  H   H270      1.0  0.22254  0.41112  0.67272  1.0000
  C   C161      1.0  0.00361  0.45129  0.57490  1.0000
  C   C162      1.0  0.00361  0.47783  0.77748  1.0000
  H   H271      1.0  0.03802  0.41048  0.98760  1.0000
  H   H272      1.0  0.17274  0.25759  0.50807  1.0000
  H   H273      1.0  0.00636  0.37746  0.53625  1.0000
  H   H274      1.0  0.21918  0.00868  0.50327  1.0000
  Fe  Fe17      1.0  0.09828  0.30383  0.50770  1.0000
  H   H275      1.0  0.22602  0.32915  0.92563  1.0000
  H   H276      1.0  0.20145  0.36643  0.68638  1.0000
  H   H277      1.0  0.19439  0.29632  0.65059  1.0000
  N   N9        1.0  0.22576  0.37104  0.64572  1.0000
  H   H278      1.0  0.19829  0.31951  0.96540  1.0000
  C   C163      1.0  0.15126  0.39777  0.97516  1.0000
  H   H279      1.0  0.23217  0.99847  0.53466  1.0000
  H   H280      1.0  0.20260  0.39571  0.72812  1.0000
  H   H281      1.0  0.16070  0.39354  0.99476  1.0000
  H   H282      1.0  0.22838  0.16133  0.90075  1.0000
  H   H283      1.0  0.22823  0.42401  0.73107  1.0000
  H   H284      1.0  0.00837  0.22764  0.73145  1.0000
  C   C164      1.0  0.00724  0.47921  0.97469  1.0000
  H   H285      1.0  0.21514  0.33018  0.69024  1.0000
  H   H286      1.0  0.04717  0.49125  0.90599  1.0000
  H   H287      1.0  0.23137  0.05974  0.59105  1.0000
  C   C165      1.0  0.98954  0.36219  0.97390  1.0000
  H   H288      1.0  0.00038  0.37304  0.95263  1.0000
  H   H289      1.0  0.05308  0.43438  0.50361  1.0000
  H   H290      1.0  0.00886  0.49164  0.85974  1.0000
  H   H291      1.0  0.98627  0.21188  0.63336  1.0000
  C   C166      1.0  0.98369  0.22628  0.62379  1.0000
  H   H292      1.0  0.20702  0.21413  0.50078  1.0000
  H   H293      1.0  0.03694  0.46209  0.50005  1.0000
  H   H294      1.0  0.23245  0.21979  0.76057  1.0000
  C   C167      1.0  0.23274  0.14883  0.88666  1.0000
  C   C168      1.0  0.23173  0.23600  0.88005  1.0000
  H   H295      1.0  0.04849  0.49337  0.86074  1.0000
  H   H296      1.0  0.17641  0.20618  0.49956  1.0000
  S   S35       1.0  0.01485  0.58313  0.09015  1.0000
  S   S36       1.0  0.02283  0.54505  0.13559  1.0000
  Fe  Fe18      1.0  0.02764  0.58213  0.14157  1.0000
  S   S37       1.0  0.06045  0.61377  0.15966  1.0000
  C   C169      1.0  0.02144  0.76175  0.47580  1.0000
  S   S38       1.0  0.01858  0.53342  0.03816  1.0000
  Fe  Fe19      1.0  0.05828  0.75306  0.30797  1.0000
  S   S39       1.0  0.07133  0.73089  0.33404  1.0000
  S   S40       1.0  0.02363  0.75241  0.32165  1.0000
  Fe  Fe20      1.0  0.09970  0.77196  0.25733  1.0000
  S   S41       1.0  0.11503  0.75004  0.28030  1.0000
  S   S42       1.0  0.11102  0.79716  0.21214  1.0000
  Fe  Fe21      1.0  0.07781  0.72054  0.28261  1.0000
  S   S43       1.0  0.05900  0.68037  0.27729  1.0000
  Fe  Fe22      1.0  0.10697  0.76229  0.33001  1.0000
  S   S44       1.0  0.13080  0.77161  0.37560  1.0000
  S   S45       1.0  0.06320  0.74163  0.25663  1.0000
  S   S46       1.0  0.09349  0.78546  0.30696  1.0000
  C   C170      1.0  0.19579  0.93913  0.19910  1.0000
  H   H297      1.0  0.19792  0.80884  0.04613  1.0000
  S   S47       1.0  0.16644  0.86101  0.47358  1.0000
  H   H298      1.0  0.16140  0.81284  0.05327  1.0000
  C   C171      1.0  0.16445  0.78579  0.02363  1.0000
  Fe  Fe23      1.0  0.20716  0.86493  0.07008  1.0000
  S   S48       1.0  0.19729  0.83552  0.10870  1.0000
  H   H299      1.0  0.11176  0.83348  0.48263  1.0000
  S   S49       1.0  0.18166  0.87656  0.05184  1.0000
  C   C172      1.0  0.13485  0.80687  0.18316  1.0000
  C   C173      1.0  0.13642  0.82254  0.15748  1.0000
  C   C174      1.0  0.15540  0.83154  0.13455  1.0000
  C   C175      1.0  0.17301  0.82479  0.13692  1.0000
  C   C176      1.0  0.17123  0.80878  0.16221  1.0000
  C   C177      1.0  0.15231  0.79990  0.18526  1.0000
  H   H300      1.0  0.12283  0.82779  0.15543  1.0000
  H   H301      1.0  0.15638  0.84366  0.11510  1.0000
  H   H302      1.0  0.18467  0.80330  0.16414  1.0000
  H   H303      1.0  0.15133  0.78779  0.20478  1.0000
  C   C178      1.0  0.14046  0.79657  0.40264  1.0000
  C   C179      1.0  0.15525  0.79859  0.42927  1.0000
  C   C180      1.0  0.16339  0.81809  0.45127  1.0000
  C   C181      1.0  0.15675  0.83583  0.44694  1.0000
  C   C182      1.0  0.14169  0.83362  0.42060  1.0000
  C   C183      1.0  0.13371  0.81423  0.39848  1.0000
  H   H304      1.0  0.16075  0.78515  0.43257  1.0000
  H   H305      1.0  0.17501  0.81954  0.47127  1.0000
  H   H306      1.0  0.13649  0.84725  0.41692  1.0000
  H   H307      1.0  0.12269  0.81317  0.37786  1.0000
  C   C184      1.0  0.05891  0.63301  0.19045  1.0000
  C   C185      1.0  0.07663  0.65650  0.19214  1.0000
  C   C186      1.0  0.07642  0.67168  0.21772  1.0000
  C   C187      1.0  0.05894  0.66314  0.24252  1.0000
  C   C188      1.0  0.04128  0.63964  0.24082  1.0000
  C   C189      1.0  0.04106  0.62479  0.21461  1.0000
  H   H308      1.0  0.09064  0.66295  0.17368  1.0000
  H   H309      1.0  0.09024  0.68967  0.21896  1.0000
  H   H310      1.0  0.02780  0.63283  0.26005  1.0000
  H   H311      1.0  0.02745  0.60676  0.21358  1.0000
  H   H312      1.0  0.19822  0.78653  0.01877  1.0000
  H   H313      1.0  0.99807  0.61816  0.19931  1.0000
  H   H314      1.0  0.12971  0.75662  0.47473  1.0000
  H   H315      1.0  0.00145  0.62517  0.47887  1.0000
  C   C190      1.0  0.14941  0.89809  0.12634  1.0000
  C   C191      1.0  0.12051  0.74069  0.49079  1.0000
  H   H316      1.0  0.10249  0.73038  0.48163  1.0000
  H   H317      1.0  0.05812  0.82739  0.34377  1.0000
  C   C192      1.0  0.00414  0.73364  0.35287  1.0000
  H   H318      1.0  0.18522  0.88467  0.14081  1.0000
  H   H319      1.0  0.02642  0.71924  0.36886  1.0000
  N   N10       1.0  0.19283  0.89702  0.19188  1.0000
  C   C193      1.0  0.00403  0.69818  0.25595  1.0000
  N   N11       1.0  0.05658  0.57348  0.26468  1.0000
  C   C194      1.0  0.05508  0.56059  0.23232  1.0000
  C   C195      1.0  0.03302  0.57200  0.27246  1.0000
  C   C196      1.0  0.07373  0.59920  0.25891  1.0000
  C   C197      1.0  0.06485  0.56426  0.29358  1.0000
  C   C198      1.0  0.05780  0.53744  0.29374  1.0000
  C   C199      1.0  0.07874  0.56410  0.21728  1.0000
  C   C200      1.0  0.07564  0.61656  0.28743  1.0000
  C   C201      1.0  0.00873  0.50094  0.48792  1.0000
  C   C202      1.0  0.11850  0.84807  0.03322  1.0000
  C   C203      1.0  0.07534  0.54531  0.19114  1.0000
  C   C204      1.0  0.09693  0.64066  0.28221  1.0000
  H   H320      1.0  0.04668  0.56635  0.21272  1.0000
  H   H321      1.0  0.04354  0.54140  0.23507  1.0000
  H   H322      1.0  0.03375  0.58271  0.29478  1.0000
  H   H323      1.0  0.02769  0.57959  0.25132  1.0000
  H   H324      1.0  0.06950  0.60577  0.23561  1.0000
  H   H325      1.0  0.09163  0.60131  0.25460  1.0000
  H   H326      1.0  0.08426  0.57354  0.29478  1.0000
  H   H327      1.0  0.05879  0.56848  0.31772  1.0000
  H   H328      1.0  0.06708  0.53316  0.27340  1.0000
  H   H329      1.0  0.08780  0.58161  0.20465  1.0000
  H   H330      1.0  0.09034  0.56349  0.23692  1.0000
  H   H331      1.0  0.07709  0.60965  0.31218  1.0000
  H   H332      1.0  0.06010  0.61961  0.28790  1.0000
  H   H333      1.0  0.08561  0.82885  0.43528  1.0000
  C   C205      1.0  0.01282  0.54718  0.28041  1.0000
  H   H334      1.0  0.17978  0.93613  0.18575  1.0000
  H   H335      1.0  0.12947  0.72954  0.48845  1.0000
  H   H336      1.0  0.08494  0.78423  0.00137  1.0000
  C   C206      1.0  0.99548  0.70707  0.40032  1.0000
  H   H337      1.0  0.06709  0.52744  0.20268  1.0000
  H   H338      1.0  0.06425  0.54580  0.17061  1.0000
  H   H339      1.0  0.09253  0.54873  0.18027  1.0000
  H   H340      1.0  0.11330  0.63922  0.28445  1.0000
  H   H341      1.0  0.09659  0.64789  0.25716  1.0000
  H   H342      1.0  0.09683  0.65325  0.30139  1.0000
  H   H343      1.0  0.05336  0.74750  0.46184  1.0000
  C   C207      1.0  0.15378  0.80281  0.02992  1.0000
  C   C208      1.0  0.07771  0.81941  0.45905  1.0000
  H   H344      1.0  0.04088  0.74031  0.42156  1.0000
  N   N12       1.0  0.12746  0.79149  0.03136  1.0000
  H   H345      1.0  0.15945  0.77244  0.04387  1.0000
  H   H346      1.0  0.03893  0.52623  0.29018  1.0000
  H   H347      1.0  0.02116  0.67412  0.37055  1.0000
  C   C209      1.0  0.11744  0.77097  0.05553  1.0000
  C   C210      1.0  0.12040  0.80978  0.04304  1.0000
  H   H348      1.0  0.15991  0.86982  0.21180  1.0000
  Fe  Fe24      1.0  0.00655  0.54477  0.08596  1.0000
  C   C211      1.0  0.12666  0.77659  0.09174  1.0000
  H   H349      1.0  0.03875  0.67374  0.11214  1.0000
  H   H350      1.0  0.02087  0.67387  0.43254  1.0000
  C   C212      1.0  0.11652  0.75433  0.11345  1.0000
  H   H351      1.0  0.12011  0.75603  0.04584  1.0000
  H   H352      1.0  0.09820  0.76381  0.05782  1.0000
  H   H353      1.0  0.10153  0.80140  0.05004  1.0000
  H   H354      1.0  0.12964  0.81826  0.06644  1.0000
  H   H355      1.0  0.01193  0.53399  0.26189  1.0000
  C   C213      1.0  0.00262  0.68728  0.22136  1.0000
  C   C214      1.0  0.01162  0.65705  0.17095  1.0000
  H   H356      1.0  0.12144  0.78918  0.10355  1.0000
  H   H357      1.0  0.14592  0.78430  0.09240  1.0000
  C   C215      1.0  0.06261  0.78637  0.39736  1.0000
  N   N13       1.0  0.05626  0.77745  0.43301  1.0000
  H   H358      1.0  0.98862  0.71044  0.03537  1.0000
  C   C216      1.0  0.19107  0.79918  0.02238  1.0000
  H   H359      1.0  0.20238  0.86605  0.23798  1.0000
  H   H360      1.0  0.12315  0.75902  0.13930  1.0000
  H   H361      1.0  0.09718  0.74622  0.11464  1.0000
  H   H362      1.0  0.12185  0.74129  0.10344  1.0000
  H   H363      1.0  0.04722  0.67470  0.38673  1.0000
  C   C217      1.0  0.06411  0.53004  0.32672  1.0000
  C   C218      1.0  0.00054  0.60708  0.01781  1.0000
  C   C219      1.0  0.02806  0.66375  0.38448  1.0000
  C   C220      1.0  0.00541  0.50536  0.01846  1.0000
  H   H364      1.0  0.02026  0.69651  0.20957  1.0000
  C   C221      1.0  0.07811  0.75247  0.42274  1.0000
  H   H365      1.0  0.14415  0.83966  0.01126  1.0000
  H   H366      1.0  0.00071  0.66064  0.47972  1.0000
  H   H367      1.0  0.17620  0.90875  0.22995  1.0000
  H   H368      1.0  0.01720  0.62214  0.02571  1.0000
  H   H369      1.0  0.13024  0.89151  0.12638  1.0000
  Fe  Fe25      1.0  0.21059  0.91354  0.05909  1.0000
  S   S50       1.0  0.22185  0.86401  0.01845  1.0000
  S   S51       1.0  0.22403  0.91599  0.00651  1.0000
  H   H370      1.0  0.99878  0.77829  0.48298  1.0000
  C   C222      1.0  0.03461  0.65548  0.11957  1.0000
  H   H371      1.0  0.02646  0.65828  0.18605  1.0000
  C   C223      1.0  0.18278  0.89712  0.15813  1.0000
  C   C224      1.0  0.07426  0.79385  0.45709  1.0000
  H   H372      1.0  0.02478  0.64771  0.43277  1.0000
  Fe  Fe26      1.0  0.98683  0.53367  0.15679  1.0000
  C   C225      1.0  0.19285  0.91577  0.21518  1.0000
  N   N14       1.0  0.98939  0.64672  0.19188  1.0000
  H   H373      1.0  0.21647  0.88482  0.17149  1.0000
  H   H374      1.0  0.20671  0.92046  0.23414  1.0000
  H   H375      1.0  0.04879  0.65607  0.13538  1.0000
  H   H376      1.0  0.09943  0.83964  0.03858  1.0000
  H   H377      1.0  0.03384  0.64523  0.09668  1.0000
  H   H378      1.0  0.00091  0.69743  0.41700  1.0000
  H   H379      1.0  0.05943  0.51098  0.32575  1.0000
  H   H380      1.0  0.14589  0.87079  0.16022  1.0000
  H   H381      1.0  0.01667  0.69566  0.27176  1.0000
  H   H382      1.0  0.00394  0.59204  0.01120  1.0000
  C   C226      1.0  0.20178  0.97451  0.12307  1.0000
  H   H383      1.0  0.08305  0.75943  0.39695  1.0000
  H   H384      1.0  0.09177  0.79570  0.45021  1.0000
  C   C227      1.0  0.09459  0.83316  0.48684  1.0000
  H   H385      1.0  0.00845  0.65840  0.23786  1.0000
  C   C228      1.0  0.21716  0.89980  0.18682  1.0000
  H   H386      1.0  0.02529  0.51580  0.48124  1.0000
  H   H387      1.0  0.16075  0.81635  0.00976  1.0000
  H   H388      1.0  0.98793  0.60159  0.03917  1.0000
  H   H389      1.0  0.02483  0.64771  0.36990  1.0000
  C   C229      1.0  0.01119  0.64351  0.13830  1.0000
  H   H390      1.0  0.12806  0.85555  0.05671  1.0000
  C   C230      1.0  0.01011  0.71966  0.37323  1.0000
  H   H391      1.0  0.15441  0.89094  0.10402  1.0000
  C   C231      1.0  0.05297  0.80301  0.38438  1.0000
  H   H392      1.0  0.06915  0.71901  0.44788  1.0000
  H   H393      1.0  0.15806  0.91768  0.12468  1.0000
  H   H394      1.0  0.05978  0.71615  0.40516  1.0000
  C   C232      1.0  0.15640  0.89026  0.15837  1.0000
  H   H395      1.0  0.17704  0.85881  0.19017  1.0000
  H   H396      1.0  0.05524  0.81701  0.40244  1.0000
  H   H397      1.0  0.19236  0.91458  0.14573  1.0000
  H   H398      1.0  0.03104  0.79058  0.44133  1.0000
  S   S52       1.0  0.20132  0.94080  0.08154  1.0000
  H   H399      1.0  0.01507  0.54144  0.30566  1.0000
  C   C233      1.0  0.18653  0.86839  0.24161  1.0000
  H   H400      1.0  0.99778  0.64301  0.12098  1.0000
  H   H401      1.0  0.09313  0.76271  0.43916  1.0000
  C   C234      1.0  0.06484  0.81507  0.35158  1.0000
  H   H402      1.0  0.08404  0.82527  0.35448  1.0000
  H   H403      1.0  0.01487  0.50693  0.19275  1.0000
  H   H404      1.0  0.06087  0.80176  0.33153  1.0000
  C   C235      1.0  0.01667  0.65710  0.41929  1.0000
  H   H405      1.0  0.15148  0.89803  0.18000  1.0000
  C   C236      1.0  0.17816  0.87296  0.20752  1.0000
  H   H406      1.0  0.01880  0.74331  0.47631  1.0000
  H   H407      1.0  0.05424  0.53272  0.34788  1.0000
  H   H408      1.0  0.08312  0.54031  0.33121  1.0000
  H   H409      1.0  0.08190  0.79539  0.39371  1.0000
  H   H410      1.0  0.16421  0.83024  0.24213  1.0000
  C   C237      1.0  0.03195  0.77371  0.44167  1.0000
  H   H411      1.0  0.05594  0.77128  0.37946  1.0000
  H   H412      1.0  0.03398  0.79257  0.37959  1.0000
  C   C238      1.0  0.07400  0.72691  0.42251  1.0000
  H   H413      1.0  0.01643  0.67547  0.16326  1.0000
  H   H414      1.0  0.18394  0.96802  0.11518  1.0000
  S   S53       1.0  0.99289  0.57076  0.16617  1.0000
  H   H415      1.0  0.00755  0.62510  0.14365  1.0000
  C   C239      1.0  0.21513  0.96415  0.11047  1.0000
  H   H416      1.0  0.98668  0.69012  0.26874  1.0000
  H   H417      1.0  0.17435  0.84302  0.28254  1.0000
  H   H418      1.0  0.99030  0.69086  0.20652  1.0000
  H   H419      1.0  0.15154  0.84689  0.26279  1.0000
  C   C240      1.0  0.16798  0.84579  0.25817  1.0000
  C   C241      1.0  0.05593  0.75372  0.43545  1.0000
  C   C242      1.0  0.98431  0.49568  0.22437  1.0000
  H   H420      1.0  0.09018  0.72640  0.41389  1.0000
  H   H421      1.0  0.01963  0.76252  0.42205  1.0000
  H   H422      1.0  0.00995  0.71744  0.25344  1.0000
  C   C243      1.0  0.00638  0.49812  0.21580  1.0000
  C   C244      1.0  0.99458  0.66041  0.22426  1.0000
  H   H423      1.0  0.09749  0.85170  0.48701  1.0000
  H   H424      1.0  0.07055  0.78620  0.48274  1.0000
  C   C245      1.0  0.12538  0.83015  0.01807  1.0000
  H   H425      1.0  0.19054  0.88318  0.25924  1.0000
  H   H426      1.0  0.99812  0.64652  0.01268  1.0000
  C   C246      1.0  0.20021  0.95793  0.22572  1.0000
  H   H427      1.0  0.98529  0.75003  0.46180  1.0000
  H   H428      1.0  0.06107  0.81986  0.46427  1.0000
  H   H429      1.0  0.19722  0.81189  0.00119  1.0000
  H   H430      1.0  0.98526  0.55063  0.25463  1.0000
  C   C247      1.0  0.98922  0.54716  0.28030  1.0000
  H   H431      1.0  0.21035  0.94658  0.18073  1.0000
  C   C248      1.0  0.99745  0.76033  0.48195  1.0000
  H   H432      1.0  0.18595  0.95134  0.24486  1.0000
  H   H433      1.0  0.20097  0.97395  0.21389  1.0000
  H   H434      1.0  0.22476  0.89891  0.21113  1.0000
  H   H435      1.0  0.08233  0.75523  0.00749  1.0000
  H   H436      1.0  0.03284  0.77178  0.49669  1.0000
  H   H437      1.0  0.98854  0.57496  0.48606  1.0000
  C   C249      1.0  0.98987  0.64147  0.41692  1.0000
  H   H438      1.0  0.99109  0.60655  0.44371  1.0000
  H   H439      1.0  0.00374  0.68645  0.00430  1.0000
  H   H440      1.0  0.12298  0.86280  0.01523  1.0000
  H   H441      1.0  0.21715  0.96308  0.23800  1.0000
  H   H442      1.0  0.98729  0.62708  0.39908  1.0000
  H   H443      1.0  0.22964  0.92603  0.14578  1.0000
  C   C250      1.0  0.98546  0.61490  0.46400  1.0000
  C   C251      1.0  0.98473  0.67892  0.00943  1.0000
  H   H444      1.0  0.98904  0.56064  0.29776  1.0000
  Fe  Fe27      1.0  0.19751  0.87774  0.00082  1.0000
  H   H445      1.0  0.15871  0.77647  0.99945  1.0000
  C   C252      1.0  0.21102  0.99292  0.14620  1.0000
  H   H446      1.0  0.22647  0.99238  0.04698  1.0000
  C   C253      1.0  0.00514  0.53442  0.86149  1.0000
  S   S54       1.0  0.01818  0.54505  0.63673  1.0000
  Fe  Fe28      1.0  0.02039  0.58139  0.63891  1.0000
  S   S55       1.0  0.05059  0.61841  0.64340  1.0000
  H   H447      1.0  0.02581  0.67909  0.88640  1.0000
  S   S56       1.0  0.00922  0.52835  0.54143  1.0000
  Fe  Fe29      1.0  0.04816  0.73098  0.80724  1.0000
  S   S57       1.0  0.06982  0.71790  0.83459  1.0000
  S   S58       1.0  0.00845  0.71117  0.81279  1.0000
  Fe  Fe30      1.0  0.09015  0.76328  0.76221  1.0000
  S   S59       1.0  0.11410  0.75132  0.78598  1.0000
  S   S60       1.0  0.10001  0.79060  0.72028  1.0000
  Fe  Fe31      1.0  0.08353  0.71480  0.78393  1.0000
  S   S61       1.0  0.08339  0.67961  0.77574  1.0000
  Fe  Fe32      1.0  0.09834  0.75557  0.83469  1.0000
  S   S62       1.0  0.12188  0.76815  0.88042  1.0000
  S   S63       1.0  0.06082  0.72632  0.75631  1.0000
  S   S64       1.0  0.07544  0.76920  0.81112  1.0000
  H   H448      1.0  0.99514  0.74119  0.92052  1.0000
  S   S65       1.0  0.21480  0.86066  0.53915  1.0000
  S   S66       1.0  0.17485  0.86760  0.95419  1.0000
  H   H449      1.0  0.03158  0.66682  0.75116  1.0000
  H   H450      1.0  0.01554  0.51436  0.70957  1.0000
  Fe  Fe33      1.0  0.20201  0.86776  0.58890  1.0000
  S   S67       1.0  0.19386  0.84207  0.63274  1.0000
  C   C254      1.0  0.13234  0.82185  0.55305  1.0000
  S   S68       1.0  0.17847  0.88092  0.56682  1.0000
  C   C255      1.0  0.12629  0.80462  0.69629  1.0000
  C   C256      1.0  0.12864  0.82166  0.67234  1.0000
  C   C257      1.0  0.14922  0.83340  0.65283  1.0000
  C   C258      1.0  0.16771  0.82817  0.65702  1.0000
  C   C259      1.0  0.16542  0.81118  0.68103  1.0000
  C   C260      1.0  0.14484  0.79945  0.70060  1.0000
  H   H451      1.0  0.11444  0.82588  0.66893  1.0000
  H   H452      1.0  0.15079  0.84656  0.63465  1.0000
  H   H453      1.0  0.17962  0.80698  0.68442  1.0000
  H   H454      1.0  0.14325  0.78631  0.71881  1.0000
  C   C261      1.0  0.13706  0.79634  0.89934  1.0000
  C   C262      1.0  0.15551  0.80054  0.92093  1.0000
  C   C263      1.0  0.16733  0.82225  0.93784  1.0000
  C   C264      1.0  0.16066  0.83994  0.93354  1.0000
  C   C265      1.0  0.14239  0.83584  0.91164  1.0000
  C   C266      1.0  0.13057  0.81413  0.89474  1.0000
  H   H455      1.0  0.16065  0.78686  0.92468  1.0000
  H   H456      1.0  0.18166  0.82534  0.95403  1.0000
  H   H457      1.0  0.13709  0.84942  0.90813  1.0000
  H   H458      1.0  0.11601  0.81089  0.87893  1.0000
  C   C267      1.0  0.05736  0.63495  0.68077  1.0000
  C   C268      1.0  0.06752  0.65972  0.67889  1.0000
  C   C269      1.0  0.07445  0.67357  0.70803  1.0000
  C   C270      1.0  0.07220  0.66277  0.73913  1.0000
  C   C271      1.0  0.06187  0.63800  0.74103  1.0000
  C   C272      1.0  0.05399  0.62410  0.71205  1.0000
  H   H459      1.0  0.07034  0.66821  0.65473  1.0000
  H   H460      1.0  0.08253  0.69262  0.70630  1.0000
  H   H461      1.0  0.06031  0.62955  0.76496  1.0000
  H   H462      1.0  0.04642  0.60507  0.71370  1.0000
  C   C273      1.0  0.98405  0.63368  0.99658  1.0000
  C   C274      1.0  0.01746  0.50085  0.99206  1.0000
  H   H463      1.0  0.12702  0.79674  0.97798  1.0000
  C   C275      1.0  0.99867  0.52366  0.92091  1.0000
  H   H464      1.0  0.22701  0.88248  0.73752  1.0000
  C   C276      1.0  0.02833  0.69184  0.90685  1.0000
  H   H465      1.0  0.11130  0.75938  0.52780  1.0000
  C   C277      1.0  0.00177  0.72791  0.87399  1.0000
  C   C278      1.0  0.99264  0.71023  0.84974  1.0000
  H   H466      1.0  0.03514  0.67716  0.63966  1.0000
  H   H467      1.0  0.01919  0.74237  0.87069  1.0000
  H   H468      1.0  0.11542  0.82350  0.99472  1.0000
  H   H469      1.0  0.18913  0.77931  0.82724  1.0000
  H   H470      1.0  0.04548  0.53092  0.86494  1.0000
  H   H471      1.0  0.00221  0.55382  0.97323  1.0000
  H   H472      1.0  0.21651  0.82119  0.59204  1.0000
  C   C279      1.0  0.03886  0.51804  0.88588  1.0000
  Fe  Fe34      1.0  0.21002  0.91693  0.56693  1.0000
  C   C280      1.0  0.08474  0.76590  0.95633  1.0000
  C   C281      1.0  0.99667  0.50220  0.51688  1.0000
  H   H473      1.0  0.00532  0.64804  0.92969  1.0000
  H   H474      1.0  0.99352  0.59453  0.52137  1.0000
  H   H475      1.0  0.15950  0.77341  0.83528  1.0000
  H   H476      1.0  0.00938  0.69680  0.94792  1.0000
  C   C282      1.0  0.01215  0.50188  0.88340  1.0000
  H   H477      1.0  0.01567  0.63741  0.68789  1.0000
  S   S69       1.0  0.21296  0.95307  0.57884  1.0000
  H   H478      1.0  0.21915  0.79424  0.59046  1.0000
  C   C283      1.0  0.99961  0.65293  0.65602  1.0000
  C   C284      1.0  0.01557  0.65691  0.76655  1.0000
  H   H479      1.0  0.20432  0.89143  0.86681  1.0000
  C   C285      1.0  0.01995  0.66080  0.63097  1.0000
  C   C286      1.0  0.05214  0.50358  0.88439  1.0000
  C   C287      1.0  0.21056  0.87799  0.86390  1.0000
  N   N15       1.0  0.99708  0.51413  0.88591  1.0000
  H   H480      1.0  0.04334  0.52790  0.90978  1.0000
  C   C288      1.0  0.02287  0.65097  0.79987  1.0000
  H   H481      1.0  0.09249  0.78219  0.94076  1.0000
  H   H482      1.0  0.02523  0.64667  0.62762  1.0000
  H   H483      1.0  0.06548  0.75757  0.95411  1.0000
  H   H484      1.0  0.01455  0.66434  0.60632  1.0000
  H   H485      1.0  0.98920  0.51581  0.81501  1.0000
  C   C289      1.0  0.99075  0.61391  0.98765  1.0000
  H   H486      1.0  0.04405  0.69498  0.92119  1.0000
  C   C290      1.0  0.00290  0.65977  0.94832  1.0000
  C   C291      1.0  0.00563  0.50266  0.72985  1.0000
  H   H487      1.0  0.03591  0.66748  0.81173  1.0000
  H   H488      1.0  0.98501  0.63670  0.64589  1.0000
  C   C292      1.0  0.21091  0.87788  0.72325  1.0000
  H   H489      1.0  0.03477  0.51425  0.98496  1.0000
  C   C293      1.0  0.98396  0.54149  0.96640  1.0000
  C   C294      1.0  0.00672  0.68263  0.92975  1.0000
  H   H490      1.0  0.20250  0.86451  0.88401  1.0000
  H   H491      1.0  0.03417  0.56301  0.80946  1.0000
  C   C295      1.0  0.22882  0.96941  0.61379  1.0000
  H   H492      1.0  0.02061  0.66618  0.69972  1.0000
  H   H493      1.0  0.16967  0.77369  0.79279  1.0000
  Fe  Fe35      1.0  0.19222  0.87524  0.51699  1.0000
  N   N16       1.0  0.14664  0.77065  0.57633  1.0000
  C   C296      1.0  0.14460  0.76029  0.54177  1.0000
  C   C297      1.0  0.17177  0.78177  0.58753  1.0000
  C   C298      1.0  0.13229  0.75051  0.60003  1.0000
  C   C299      1.0  0.13712  0.78817  0.57826  1.0000
  C   C300      1.0  0.14690  0.80867  0.55256  1.0000
  C   C301      1.0  0.11972  0.74773  0.52719  1.0000
  C   C302      1.0  0.13343  0.75705  0.63768  1.0000
  C   C303      1.0  0.19113  0.79374  0.56027  1.0000
  C   C304      1.0  0.21531  0.80663  0.57564  1.0000
  H   H494      1.0  0.99251  0.67858  0.53120  1.0000
  C   C305      1.0  0.11936  0.73516  0.65932  1.0000
  H   H495      1.0  0.15159  0.74729  0.54168  1.0000
  H   H496      1.0  0.15560  0.77397  0.52325  1.0000
  H   H497      1.0  0.17473  0.79497  0.60755  1.0000
  H   H498      1.0  0.17570  0.76824  0.59920  1.0000
  H   H499      1.0  0.13759  0.73626  0.59749  1.0000
  H   H500      1.0  0.11349  0.74227  0.59375  1.0000
  H   H501      1.0  0.11776  0.77889  0.57653  1.0000
  H   H502      1.0  0.14056  0.79681  0.60318  1.0000
  H   H503      1.0  0.14676  0.80253  0.52659  1.0000
  H   H504      1.0  0.16496  0.82157  0.55919  1.0000
  H   H505      1.0  0.10860  0.73128  0.54130  1.0000
  N   N17       1.0  0.98740  0.63773  0.71696  1.0000
  H   H506      1.0  0.12590  0.76929  0.64211  1.0000
  H   H507      1.0  0.15162  0.76552  0.64669  1.0000
  H   H508      1.0  0.19147  0.78016  0.54311  1.0000
  H   H509      1.0  0.18831  0.80658  0.54514  1.0000
  S   S70       1.0  0.23231  0.90412  0.59261  1.0000
  H   H510      1.0  0.13980  0.83667  0.53483  1.0000
  C   C306      1.0  0.98810  0.72722  0.90216  1.0000
  H   H511      1.0  0.11409  0.80991  0.54586  1.0000
  H   H512      1.0  0.13239  0.82923  0.57828  1.0000
  H   H513      1.0  0.01840  0.52000  0.82071  1.0000
  S   S71       1.0  0.22161  0.91267  0.51525  1.0000
  H   H514      1.0  0.22976  0.88677  0.86697  1.0000
  H   H515      1.0  0.12022  0.74044  0.68600  1.0000
  H   H516      1.0  0.10074  0.72631  0.65204  1.0000
  H   H517      1.0  0.12653  0.72243  0.65694  1.0000
  N   N18       1.0  0.16841  0.83840  0.79407  1.0000
  C   C307      1.0  0.16213  0.81324  0.80342  1.0000
  C   C308      1.0  0.14630  0.83856  0.78276  1.0000
  C   C309      1.0  0.18522  0.84572  0.76456  1.0000
  C   C310      1.0  0.17772  0.85463  0.82384  1.0000
  C   C311      1.0  0.20444  0.86638  0.82946  1.0000
  C   C312      1.0  0.18228  0.80859  0.81531  1.0000
  C   C313      1.0  0.18964  0.86897  0.74675  1.0000
  C   C314      1.0  0.12609  0.83040  0.80894  1.0000
  C   C315      1.0  0.10596  0.83417  0.79610  1.0000
  S   S72       1.0  0.98755  0.56932  0.66917  1.0000
  C   C316      1.0  0.17459  0.78213  0.81775  1.0000
  Fe  Fe36      1.0  0.99750  0.53975  0.58960  1.0000
  H   H518      1.0  0.15358  0.80133  0.78190  1.0000
  H   H519      1.0  0.14915  0.80684  0.82435  1.0000
  H   H520      1.0  0.14989  0.85669  0.77537  1.0000
  H   H521      1.0  0.13947  0.82738  0.76008  1.0000
  H   H522      1.0  0.17875  0.83166  0.74515  1.0000
  H   H523      1.0  0.20238  0.84735  0.77158  1.0000
  H   H524      1.0  0.17332  0.86951  0.82221  1.0000
  H   H525      1.0  0.16882  0.84498  0.84721  1.0000
  C   C317      1.0  0.11832  0.78252  0.99694  1.0000
  H   H526      1.0  0.21149  0.85364  0.82772  1.0000
  H   H527      1.0  0.19756  0.81615  0.79806  1.0000
  H   H528      1.0  0.18763  0.81609  0.84071  1.0000
  H   H529      1.0  0.19229  0.88304  0.76511  1.0000
  H   H530      1.0  0.17441  0.86582  0.73114  1.0000
  H   H531      1.0  0.11898  0.81132  0.81433  1.0000
  H   H532      1.0  0.13202  0.84037  0.83261  1.0000
  H   H533      1.0  0.11174  0.85322  0.79150  1.0000
  H   H534      1.0  0.09911  0.82420  0.77256  1.0000
  H   H535      1.0  0.09156  0.82768  0.81503  1.0000
  H   H536      1.0  0.03096  0.63916  0.79594  1.0000
  H   H537      1.0  0.00474  0.55879  0.80379  1.0000
  H   H538      1.0  0.02237  0.54898  0.86882  1.0000
  H   H539      1.0  0.03143  0.70883  0.89531  1.0000
  H   H540      1.0  0.07118  0.51559  0.88536  1.0000
  H   H541      1.0  0.22703  0.93955  0.64067  1.0000
  H   H542      1.0  0.09084  0.75340  0.94643  1.0000
  H   H543      1.0  0.00789  0.66882  0.77237  1.0000
  S   S73       1.0  0.00253  0.57708  0.58996  1.0000
  C   C318      1.0  0.00687  0.64873  0.69121  1.0000
  H   H544      1.0  0.01670  0.53757  0.92594  1.0000
  H   H545      1.0  0.00406  0.61953  0.96722  1.0000
  H   H546      1.0  0.21371  0.88033  0.81037  1.0000
  H   H547      1.0  0.08739  0.82513  0.51166  1.0000
  H   H548      1.0  0.01681  0.54510  0.77562  1.0000
  H   H549      1.0  0.00762  0.64237  0.81717  1.0000
  H   H550      1.0  0.99001  0.75125  0.50613  1.0000
  H   H551      1.0  0.03455  0.49800  0.74748  1.0000
  C   C319      1.0  0.00673  0.52819  0.82428  1.0000
  H   H552      1.0  0.99524  0.50962  0.93966  1.0000
  H   H553      1.0  0.99091  0.67255  0.72709  1.0000
  C   C320      1.0  0.99802  0.63413  0.74843  1.0000
  H   H554      1.0  0.98446  0.62386  0.76741  1.0000
  C   C321      1.0  0.09152  0.77186  0.99290  1.0000
  H   H555      1.0  0.99171  0.67986  0.91428  1.0000
  H   H556      1.0  0.21293  0.89390  0.70980  1.0000
  H   H557      1.0  0.01799  0.66536  0.96536  1.0000
  H   H558      1.0  0.99303  0.54230  0.86227  1.0000
  H   H559      1.0  0.20866  0.86420  0.70432  1.0000
  C   C322      1.0  0.01620  0.55020  0.80210  1.0000
  H   H560      1.0  0.00707  0.62329  0.74274  1.0000
  H   H561      1.0  0.12285  0.76842  0.98914  1.0000
  H   H562      1.0  0.98782  0.55131  0.91464  1.0000
  H   H563      1.0  0.99421  0.66705  0.65710  1.0000
  H   H564      1.0  0.22874  0.81443  0.55545  1.0000
  H   H565      1.0  0.98400  0.71061  0.99111  1.0000
  Fe  Fe37      1.0  0.98340  0.53260  0.66337  1.0000
  C   C323      1.0  0.29109  0.30527  0.43741  1.0000
  C   C324      1.0  0.26740  0.07626  0.03431  1.0000
  S   S74       1.0  0.29228  0.34513  0.28490  1.0000
  C   C325      1.0  0.35889  0.30401  0.02298  1.0000
  H   H566      1.0  0.41148  0.33955  0.45653  1.0000
  H   H567      1.0  0.33427  0.32569  0.33483  1.0000
  C   C326      1.0  0.42963  0.37736  0.46508  1.0000
  S   S75       1.0  0.28569  0.17016  0.04798  1.0000
  Fe  Fe38      1.0  0.27966  0.21529  0.44617  1.0000
  S   S76       1.0  0.31141  0.23808  0.41561  1.0000
  H   H568      1.0  0.43273  0.35617  0.02851  1.0000
  Fe  Fe39      1.0  0.32344  0.21135  0.42925  1.0000
  S   S77       1.0  0.34111  0.19955  0.38892  1.0000
  Fe  Fe40      1.0  0.32716  0.25578  0.46433  1.0000
  H   H569      1.0  0.44363  0.40137  0.42380  1.0000
  S   S78       1.0  0.29039  0.18715  0.45699  1.0000
  H   H570      1.0  0.26689  0.21077  0.33530  1.0000
  Fe  Fe41      1.0  0.30086  0.09269  0.25534  1.0000
  S   S79       1.0  0.33700  0.10503  0.23342  1.0000
  S   S80       1.0  0.28836  0.10788  0.29849  1.0000
  Fe  Fe42      1.0  0.27875  0.05277  0.20322  1.0000
  S   S81       1.0  0.31299  0.06280  0.17752  1.0000
  C   C327      1.0  0.30496  0.01571  0.31769  1.0000
  Fe  Fe43      1.0  0.32716  0.06617  0.22967  1.0000
  S   S82       1.0  0.34764  0.04552  0.23725  1.0000
  Fe  Fe44      1.0  0.31952  0.10042  0.18340  1.0000
  S   S83       1.0  0.33614  0.12741  0.14117  1.0000
  S   S84       1.0  0.29217  0.05414  0.25501  1.0000
  S   S85       1.0  0.28413  0.09018  0.20556  1.0000
  Fe  Fe45      1.0  0.41407  0.39081  0.11600  1.0000
  S   S86       1.0  0.39445  0.40911  0.09616  1.0000
  S   S87       1.0  0.41076  0.35536  0.09861  1.0000
  Fe  Fe46      1.0  0.44094  0.43081  0.16614  1.0000
  S   S88       1.0  0.42338  0.45183  0.14909  1.0000
  S   S89       1.0  0.46588  0.44080  0.20985  1.0000
  Fe  Fe47      1.0  0.39045  0.41710  0.15015  1.0000
  S   S90       1.0  0.35717  0.41603  0.17180  1.0000
  Fe  Fe48      1.0  0.42924  0.44206  0.09684  1.0000
  S   S91       1.0  0.43953  0.46872  0.05395  1.0000
  S   S92       1.0  0.40764  0.39647  0.16999  1.0000
  S   S93       1.0  0.44920  0.42333  0.11380  1.0000
  H   H571      1.0  0.29235  0.36934  0.16205  1.0000
  S   S94       1.0  0.40693  0.04242  0.36098  1.0000
  C   C328      1.0  0.45828  0.02643  0.21932  1.0000
  S   S95       1.0  0.44825  0.01247  0.37694  1.0000
  H   H572      1.0  0.25674  0.03097  0.08902  1.0000
  H   H573      1.0  0.28536  0.40299  0.14853  1.0000
  H   H574      1.0  0.37813  0.41974  0.24886  1.0000
  C   C329      1.0  0.46298  0.47564  0.02513  1.0000
  C   C330      1.0  0.35901  0.32563  0.03021  1.0000
  C   C331      1.0  0.29808  0.30020  0.40223  1.0000
  C   C332      1.0  0.25191  0.07405  0.09076  1.0000
  C   C333      1.0  0.30159  0.33386  0.11589  1.0000
  H   H575      1.0  0.24637  0.03012  0.01383  1.0000
  C   C334      1.0  0.36276  0.04422  0.27309  1.0000
  C   C335      1.0  0.36909  0.02601  0.27549  1.0000
  C   C336      1.0  0.38218  0.02493  0.30261  1.0000
  C   C337      1.0  0.38924  0.04221  0.32749  1.0000
  C   C338      1.0  0.38266  0.06024  0.32533  1.0000
  C   C339      1.0  0.36934  0.06118  0.29839  1.0000
  H   H576      1.0  0.36388  0.01272  0.25613  1.0000
  H   H577      1.0  0.38716  0.01102  0.30402  1.0000
  H   H578      1.0  0.38807  0.07370  0.34446  1.0000
  H   H579      1.0  0.36463  0.07531  0.29682  1.0000
  H   H580      1.0  0.34763  0.02433  0.44007  1.0000
  H   H581      1.0  0.28973  0.30122  0.32420  1.0000
  C   C340      1.0  0.42041  0.02822  0.22096  1.0000
  C   C341      1.0  0.30029  0.15872  0.07353  1.0000
  C   C342      1.0  0.32345  0.16359  0.06746  1.0000
  C   C343      1.0  0.33417  0.15393  0.08845  1.0000
  C   C344      1.0  0.32186  0.13914  0.11549  1.0000
  C   C345      1.0  0.29871  0.13422  0.12150  1.0000
  C   C346      1.0  0.28807  0.14408  0.10077  1.0000
  H   H582      1.0  0.33309  0.17485  0.04665  1.0000
  H   H583      1.0  0.35211  0.15786  0.08357  1.0000
  H   H584      1.0  0.28897  0.12279  0.14207  1.0000
  H   H585      1.0  0.27015  0.14021  0.10568  1.0000
  C   C347      1.0  0.32677  0.17301  0.36567  1.0000
  C   C348      1.0  0.30338  0.15694  0.37179  1.0000
  C   C349      1.0  0.29205  0.13695  0.35122  1.0000
  C   C350      1.0  0.30402  0.13263  0.32459  1.0000
  C   C351      1.0  0.32764  0.14828  0.31915  1.0000
  C   C352      1.0  0.33895  0.16832  0.33972  1.0000
  H   H586      1.0  0.29407  0.15998  0.39235  1.0000
  H   H587      1.0  0.27388  0.12472  0.35598  1.0000
  H   H588      1.0  0.33719  0.14487  0.29925  1.0000
  H   H589      1.0  0.35725  0.18028  0.33556  1.0000
  Fe  Fe49      1.0  0.25282  0.33030  0.28794  1.0000
  C   C353      1.0  0.37379  0.29784  0.04046  1.0000
  C   C354      1.0  0.38922  0.31356  0.06408  1.0000
  C   C355      1.0  0.38956  0.33532  0.07096  1.0000
  C   C356      1.0  0.37399  0.34104  0.05444  1.0000
  C   C357      1.0  0.31830  0.00752  0.34094  1.0000
  H   H590      1.0  0.37402  0.28136  0.03492  1.0000
  H   H591      1.0  0.40120  0.30897  0.07673  1.0000
  H   H592      1.0  0.37394  0.35764  0.05964  1.0000
  H   H593      1.0  0.29728  0.11139  0.04352  1.0000
  C   C358      1.0  0.33903  0.39553  0.20242  1.0000
  C   C359      1.0  0.31815  0.39565  0.21222  1.0000
  C   C360      1.0  0.30321  0.37969  0.23653  1.0000
  C   C361      1.0  0.30957  0.36415  0.25233  1.0000
  C   C362      1.0  0.33074  0.36441  0.24315  1.0000
  C   C363      1.0  0.34516  0.37964  0.21776  1.0000
  H   H594      1.0  0.31338  0.40802  0.20066  1.0000
  H   H595      1.0  0.28709  0.37987  0.24365  1.0000
  H   H596      1.0  0.33589  0.35256  0.25540  1.0000
  H   H597      1.0  0.36120  0.37938  0.21046  1.0000
  H   H598      1.0  0.31628  0.03441  0.31031  1.0000
  Fe  Fe50      1.0  0.41303  0.01151  0.37617  1.0000
  H   H599      1.0  0.24318  0.09265  0.14979  1.0000
  H   H600      1.0  0.30606  0.14275  0.47713  1.0000
  H   H601      1.0  0.23744  0.20090  0.28070  1.0000
  H   H602      1.0  0.27409  0.03370  0.02724  1.0000
  C   C364      1.0  0.27479  0.28224  0.45539  1.0000
  H   H603      1.0  0.26178  0.09340  0.09474  1.0000
  S   S96       1.0  0.24238  0.20536  0.43317  1.0000
  H   H604      1.0  0.30544  0.31557  0.07176  1.0000
  C   C365      1.0  0.32932  0.43861  0.28289  1.0000
  C   C366      1.0  0.39292  0.43242  0.26411  1.0000
  C   C367      1.0  0.30182  0.29389  0.32985  1.0000
  N   N19       1.0  0.26271  0.32085  0.15033  1.0000
  C   C368      1.0  0.24742  0.23896  0.38498  1.0000
  C   C369      1.0  0.41389  0.42887  0.25171  1.0000
  C   C370      1.0  0.41094  0.40459  0.26179  1.0000
  H   H605      1.0  0.28395  0.36853  0.11924  1.0000
  C   C371      1.0  0.26882  0.19642  0.32181  1.0000
  C   C372      1.0  0.37053  0.45426  0.25906  1.0000
  S   S97       1.0  0.40359  0.99714  0.42862  1.0000
  H   H606      1.0  0.38871  0.42601  0.29042  1.0000
  H   H607      1.0  0.26914  0.11082  0.04573  1.0000
  C   C373      1.0  0.31075  0.33390  0.08038  1.0000
  H   H608      1.0  0.41904  0.00195  0.28315  1.0000
  S   S98       1.0  0.46379  0.01049  0.46939  1.0000
  H   H609      1.0  0.29752  0.31281  0.23551  1.0000
  S   S99       1.0  0.24317  0.02414  0.18786  1.0000
  H   H610      1.0  0.41505  0.42995  0.22400  1.0000
  H   H611      1.0  0.43071  0.44231  0.26137  1.0000
  H   H612      1.0  0.41085  0.40303  0.28944  1.0000
  H   H613      1.0  0.39448  0.39036  0.25177  1.0000
  H   H614      1.0  0.42574  0.40224  0.25136  1.0000
  C   C374      1.0  0.35872  0.35338  0.38308  1.0000
  H   H615      1.0  0.26495  0.28680  0.19964  1.0000
  H   H616      1.0  0.45741  0.06103  0.25567  1.0000
  N   N20       1.0  0.24784  0.17283  0.32902  1.0000
  H   H617      1.0  0.42384  0.44271  0.45501  1.0000
  H   H618      1.0  0.37082  0.47174  0.26120  1.0000
  C   C375      1.0  0.28933  0.07370  0.08389  1.0000
  C   C376      1.0  0.30733  0.06919  0.06336  1.0000
  C   C377      1.0  0.33154  0.08200  0.07868  1.0000
  H   H619      1.0  0.29732  0.09280  0.09008  1.0000
  H   H620      1.0  0.28763  0.06480  0.10834  1.0000
  H   H621      1.0  0.30911  0.07550  0.03724  1.0000
  H   H622      1.0  0.30220  0.05004  0.06356  1.0000
  H   H623      1.0  0.26096  0.06599  0.14037  1.0000
  H   H624      1.0  0.33104  0.07652  0.10512  1.0000
  H   H625      1.0  0.34394  0.07768  0.06445  1.0000
  H   H626      1.0  0.33811  0.10143  0.07770  1.0000
  H   H627      1.0  0.27596  0.12212  0.47022  1.0000
  S   S100      1.0  0.34188  0.29569  0.46868  1.0000
  H   H628      1.0  0.26561  0.99850  0.15226  1.0000
  H   H629      1.0  0.24936  0.26431  0.34736  1.0000
  H   H630      1.0  0.31640  0.42591  0.30095  1.0000
  C   C378      1.0  0.36002  0.20574  0.27151  1.0000
  S   S101      1.0  0.34227  0.23129  0.47562  1.0000
  C   C379      1.0  0.28089  0.30090  0.18751  1.0000
  H   H631      1.0  0.44414  0.05606  0.18620  1.0000
  C   C380      1.0  0.44953  0.40016  0.44940  1.0000
  C   C381      1.0  0.45243  0.00907  0.18969  1.0000
  H   H632      1.0  0.33376  0.34283  0.42441  1.0000
  H   H633      1.0  0.39313  0.38215  0.39297  1.0000
  H   H634      1.0  0.43263  0.04373  0.28167  1.0000
  H   H635      1.0  0.46853  0.04477  0.20965  1.0000
  C   C382      1.0  0.37738  0.36960  0.40723  1.0000
  C   C383      1.0  0.27968  0.10368  0.03247  1.0000
  C   C384      1.0  0.25249  0.03889  0.06706  1.0000
  H   H636      1.0  0.27661  0.07026  0.01614  1.0000
  H   H637      1.0  0.28143  0.07771  0.49025  1.0000
  C   C385      1.0  0.27447  0.31988  0.11773  1.0000
  C   C386      1.0  0.32233  0.31112  0.35171  1.0000
  C   C387      1.0  0.42932  0.05257  0.20352  1.0000
  H   H638      1.0  0.28435  0.29363  0.16407  1.0000
  N   N21       1.0  0.39497  0.45690  0.26118  1.0000
  H   H639      1.0  0.26483  0.38434  0.17990  1.0000
  H   H640      1.0  0.26751  0.32603  0.09678  1.0000
  C   C388      1.0  0.30524  0.33648  0.37023  1.0000
  H   H641      1.0  0.26488  0.15243  0.31174  1.0000
  H   H642      1.0  0.33011  0.34373  0.08000  1.0000
  H   H643      1.0  0.26571  0.24807  0.39097  1.0000
  H   H644      1.0  0.28906  0.01454  0.33039  1.0000
  H   H645      1.0  0.31850  0.20480  0.17776  1.0000
  H   H646      1.0  0.47983  0.07834  0.30786  1.0000
  H   H647      1.0  0.32357  0.19641  0.11879  1.0000
  H   H648      1.0  0.42287  0.35685  0.41901  1.0000
  C   C389      1.0  0.41747  0.42455  0.46515  1.0000
  H   H649      1.0  0.33163  0.45658  0.28864  1.0000
  H   H650      1.0  0.24755  0.34098  0.17439  1.0000
  H   H651      1.0  0.41280  0.37796  0.46458  1.0000
  H   H652      1.0  0.23770  0.13069  0.41315  1.0000
  H   H653      1.0  0.29563  0.27632  0.28180  1.0000
  C   C390      1.0  0.35884  0.01600  0.43343  1.0000
  H   H654      1.0  0.41257  0.01476  0.20115  1.0000
  H   H655      1.0  0.23869  0.99694  0.49117  1.0000
  H   H656      1.0  0.29456  0.33857  0.17894  1.0000
  H   H657      1.0  0.34295  0.32175  0.41289  1.0000
  H   H658      1.0  0.45590  0.02393  0.30572  1.0000
  H   H659      1.0  0.41107  0.37921  0.02825  1.0000
  H   H660      1.0  0.36301  0.44716  0.23407  1.0000
  H   H661      1.0  0.38196  0.41949  0.46839  1.0000
  C   C391      1.0  0.30112  0.30675  0.21108  1.0000
  H   H662      1.0  0.29892  0.11526  0.45622  1.0000
  C   C392      1.0  0.45817  0.40165  0.03316  1.0000
  H   H663      1.0  0.24495  0.33956  0.13020  1.0000
  H   H664      1.0  0.28147  0.29095  0.38845  1.0000
  N   N22       1.0  0.26568  0.06563  0.06857  1.0000
  H   H665      1.0  0.42728  0.42098  0.03585  1.0000
  H   H666      1.0  0.48016  0.45617  0.37560  1.0000
  H   H667      1.0  0.30644  0.31469  0.45354  1.0000
  Fe  Fe51      1.0  0.43731  0.99481  0.42748  1.0000
  H   H668      1.0  0.41657  0.07118  0.17131  1.0000
  H   H669      1.0  0.38469  0.15349  0.24017  1.0000
  H   H670      1.0  0.35359  0.01586  0.38071  1.0000
  H   H671      1.0  0.27908  0.13553  0.24340  1.0000
  H   H672      1.0  0.32403  0.01987  0.36244  1.0000
  H   H673      1.0  0.25847  0.27237  0.44123  1.0000
  H   H674      1.0  0.44284  0.48417  0.27426  1.0000
  H   H675      1.0  0.40493  0.48833  0.29112  1.0000
  H   H676      1.0  0.32955  0.22435  0.33019  1.0000
  H   H677      1.0  0.25576  0.38319  0.13702  1.0000
  H   H678      1.0  0.31346  0.34506  0.34600  1.0000
  C   C393      1.0  0.46412  0.04128  0.29287  1.0000
  H   H679      1.0  0.32021  0.30544  0.28196  1.0000
  C   C394      1.0  0.39505  0.41851  0.48500  1.0000
  H   H680      1.0  0.30948  0.32567  0.13232  1.0000
  C   C395      1.0  0.43210  0.47783  0.29736  1.0000
  H   H681      1.0  0.44828  0.39251  0.05628  1.0000
  H   H682      1.0  0.24302  0.28268  0.15379  1.0000
  H   H683      1.0  0.27537  0.35683  0.37712  1.0000
  H   H684      1.0  0.38486  0.40014  0.02099  1.0000
  H   H685      1.0  0.36673  0.34475  0.36700  1.0000
  S   S102      1.0  0.23503  0.31298  0.33639  1.0000
  H   H686      1.0  0.30831  0.35245  0.12377  1.0000
  H   H687      1.0  0.43482  0.06705  0.22209  1.0000
  H   H688      1.0  0.23539  0.07088  0.07841  1.0000
  N   N23       1.0  0.45660  0.42301  0.46827  1.0000
  H   H689      1.0  0.32243  0.28091  0.30104  1.0000
  H   H690      1.0  0.39286  0.23751  0.27979  1.0000
  S   S103      1.0  0.29423  0.23447  0.49371  1.0000
  H   H691      1.0  0.36702  0.24131  0.28637  1.0000
  C   C396      1.0  0.24927  0.15468  0.30610  1.0000
  C   C397      1.0  0.27836  0.14383  0.21943  1.0000
  H   H692      1.0  0.33224  0.30161  0.35936  1.0000
  H   H693      1.0  0.31766  0.32072  0.20013  1.0000
  H   H694      1.0  0.43329  0.49198  0.34758  1.0000
  H   H695      1.0  0.46494  0.39703  0.44529  1.0000
  H   H696      1.0  0.32922  0.22654  0.12389  1.0000
  H   H697      1.0  0.48156  0.03248  0.15741  1.0000
  C   C398      1.0  0.27719  0.32281  0.18055  1.0000
  C   C399      1.0  0.39837  0.41341  0.00416  1.0000
  H   H698      1.0  0.37080  0.37987  0.42256  1.0000
  H   H699      1.0  0.43314  0.46209  0.30693  1.0000
  H   H700      1.0  0.44232  0.35299  0.44752  1.0000
  Fe  Fe52      1.0  0.29943  0.19526  0.00288  1.0000
  H   H701      1.0  0.34236  0.19762  0.28326  1.0000
  C   C400      1.0  0.38886  0.16112  0.21454  1.0000
  H   H702      1.0  0.24844  0.31749  0.40988  1.0000
  C   C401      1.0  0.42646  0.35542  0.44573  1.0000
  C   C402      1.0  0.37460  0.22903  0.28954  1.0000
  N   N24       1.0  0.31563  0.32101  0.38207  1.0000
  H   H703      1.0  0.36811  0.19408  0.27602  1.0000
  H   H704      1.0  0.38233  0.35898  0.42410  1.0000
  H   H705      1.0  0.47074  0.02322  0.23458  1.0000
  C   C403      1.0  0.25559  0.02690  0.03481  1.0000
  H   H706      1.0  0.24640  0.11226  0.28205  1.0000
  H   H707      1.0  0.28641  0.32554  0.36463  1.0000
  H   H708      1.0  0.27156  0.15666  0.22411  1.0000
  C   C404      1.0  0.35249  0.43786  0.28562  1.0000
  C   C405      1.0  0.31264  0.22309  0.32226  1.0000
  C   C406      1.0  0.40775  0.46866  0.22920  1.0000
  H   H709      1.0  0.30116  0.37677  0.35386  1.0000
  H   H710      1.0  0.28348  0.27092  0.45834  1.0000
  H   H711      1.0  0.26006  0.15810  0.36791  1.0000
  C   C407      1.0  0.44736  0.04328  0.26727  1.0000
  H   H712      1.0  0.46092  0.42009  0.03491  1.0000
  H   H713      1.0  0.39164  0.19464  0.22872  1.0000
  H   H714      1.0  0.40796  0.16865  0.21009  1.0000
  C   C408      1.0  0.35483  0.17050  0.21712  1.0000
  C   C409      1.0  0.38146  0.18046  0.21071  1.0000
  H   H715      1.0  0.40400  0.03993  0.16325  1.0000
  H   H716      1.0  0.35066  0.16223  0.24240  1.0000
  C   C410      1.0  0.29423  0.36939  0.37911  1.0000
  H   H717      1.0  0.31876  0.16782  0.25065  1.0000
  C   C411      1.0  0.23400  0.00179  0.15690  1.0000
  C   C412      1.0  0.23798  0.32280  0.42689  1.0000
  H   H718      1.0  0.36366  0.99567  0.39416  1.0000
  H   H719      1.0  0.37986  0.14684  0.19599  1.0000
  C   C413      1.0  0.30758  0.35708  0.39325  1.0000
  H   H720      1.0  0.38646  0.18761  0.18499  1.0000
  H   H721      1.0  0.30829  0.14248  0.19800  1.0000
  H   H722      1.0  0.34614  0.15548  0.19964  1.0000
  C   C414      1.0  0.47588  0.99621  0.49444  1.0000
  C   C415      1.0  0.32010  0.17593  0.22556  1.0000
  H   H723      1.0  0.26616  0.12975  0.20268  1.0000
  H   H724      1.0  0.27007  0.30129  0.11139  1.0000
  C   C416      1.0  0.35862  0.20977  0.23359  1.0000
  H   H725      1.0  0.34871  0.41919  0.28195  1.0000
  C   C417      1.0  0.30256  0.15606  0.20296  1.0000
  C   C418      1.0  0.40629  0.47161  0.29161  1.0000
  N   N25       1.0  0.34515  0.18776  0.21327  1.0000
  H   H726      1.0  0.37664  0.22016  0.22323  1.0000
  H   H727      1.0  0.31358  0.18910  0.22950  1.0000
  H   H728      1.0  0.30074  0.16325  0.17864  1.0000
  H   H729      1.0  0.27007  0.20077  0.29473  1.0000
  C   C419      1.0  0.34697  0.19461  0.17686  1.0000
  H   H730      1.0  0.36553  0.20396  0.16845  1.0000
  H   H731      1.0  0.41749  0.02627  0.01440  1.0000
  C   C420      1.0  0.47599  0.42746  0.49223  1.0000
  C   C421      1.0  0.33649  0.21127  0.16775  1.0000
  H   H732      1.0  0.34745  0.22922  0.17788  1.0000
  C   C422      1.0  0.27769  0.36619  0.14566  1.0000
  H   H733      1.0  0.33902  0.17858  0.16081  1.0000
  H   H734      1.0  0.35053  0.22172  0.23173  1.0000
  H   H735      1.0  0.35328  0.21995  0.11827  1.0000
  H   H736      1.0  0.24956  0.06986  0.02405  1.0000
  H   H737      1.0  0.31005  0.23706  0.33543  1.0000
  H   H738      1.0  0.43289  0.37493  0.49141  1.0000
  C   C423      1.0  0.33567  0.21366  0.12987  1.0000
  H   H739      1.0  0.45536  0.05865  0.33379  1.0000
  H   H740      1.0  0.29192  0.27670  0.34293  1.0000
  H   H741      1.0  0.32609  0.37064  0.39509  1.0000
  H   H742      1.0  0.39815  0.45772  0.20740  1.0000
  H   H743      1.0  0.33376  0.00908  0.32681  1.0000
  C   C424      1.0  0.24516  0.00017  0.03930  1.0000
  H   H744      1.0  0.35882  0.44315  0.31139  1.0000
  H   H745      1.0  0.37482  0.22559  0.31672  1.0000
  H   H746      1.0  0.30415  0.34272  0.06280  1.0000
  C   C425      1.0  0.29330  0.12367  0.47631  1.0000
  H   H747      1.0  0.23969  0.15692  0.43350  1.0000
  H   H748      1.0  0.29662  0.18551  0.31766  1.0000
  H   H749      1.0  0.31351  0.22615  0.29485  1.0000
  C   C426      1.0  0.29295  0.19863  0.33121  1.0000
  H   H750      1.0  0.38762  0.40035  0.49546  1.0000
  H   H751      1.0  0.42525  0.46956  0.22754  1.0000
  H   H752      1.0  0.30100  0.35115  0.41890  1.0000
  C   C427      1.0  0.33729  0.33431  0.40235  1.0000
  H   H753      1.0  0.28142  0.31557  0.43540  1.0000
  H   H754      1.0  0.46977  0.00149  0.14787  1.0000
  H   H755      1.0  0.29387  0.19610  0.35846  1.0000
  C   C428      1.0  0.46585  0.44326  0.44347  1.0000
  H   H756      1.0  0.35144  0.34016  0.49775  1.0000
  H   H757      1.0  0.41321  0.41219  0.44379  1.0000
  H   H758      1.0  0.32223  0.43358  0.25733  1.0000
  N   N26       1.0  0.44411  0.38952  0.00276  1.0000
  H   H759      1.0  0.30478  0.28711  0.40568  1.0000
  H   H760      1.0  0.43942  0.01005  0.17301  1.0000
  H   H761      1.0  0.29612  0.38409  0.39581  1.0000
  C   C429      1.0  0.31067  0.28887  0.29665  1.0000
  C   C430      1.0  0.42621  0.00048  0.25820  1.0000
  H   H762      1.0  0.35381  0.36429  0.36678  1.0000
  H   H763      1.0  0.37719  0.03013  0.43109  1.0000
  H   H764      1.0  0.40560  0.02594  0.23770  1.0000
  C   C431      1.0  0.25700  0.34123  0.15062  1.0000
  C   C432      1.0  0.36373  0.31408  0.49674  1.0000
  H   H765      1.0  0.48109  0.46173  0.05501  1.0000
  C   C433      1.0  0.23820  0.24811  0.36049  1.0000
  H   H766      1.0  0.39672  0.46245  0.31476  1.0000
  C   C434      1.0  0.43918  0.36398  0.00319  1.0000
  H   H767      1.0  0.34760  0.33058  0.01671  1.0000
  H   H768      1.0  0.26897  0.32586  0.20355  1.0000
  H   H769      1.0  0.35780  0.00373  0.45374  1.0000
  H   H770      1.0  0.39943  0.43096  0.00946  1.0000
  H   H771      1.0  0.25837  0.04016  0.48646  1.0000
  H   H772      1.0  0.46708  0.48608  0.19525  1.0000
  N   N27       1.0  0.43798  0.02430  0.24078  1.0000
  H   H773      1.0  0.45280  0.44014  0.42379  1.0000
  C   C435      1.0  0.48125  0.47046  0.03185  1.0000
  H   H774      1.0  0.29998  0.00491  0.29454  1.0000
  H   H775      1.0  0.30326  0.29073  0.21537  1.0000
  C   C436      1.0  0.24864  0.16665  0.36532  1.0000
  C   C437      1.0  0.40996  0.05353  0.18322  1.0000
  C   C438      1.0  0.47556  0.48756  0.21883  1.0000
  H   H776      1.0  0.25486  0.99594  0.05846  1.0000
  C   C439      1.0  0.27036  0.38528  0.15324  1.0000
  H   H777      1.0  0.25682  0.18297  0.38080  1.0000
  H   H778      1.0  0.23330  0.03264  0.06917  1.0000
  H   H779      1.0  0.39485  0.05062  0.19974  1.0000
  C   C440      1.0  0.42213  0.41452  0.01001  1.0000
  C   C441      1.0  0.43649  0.42360  0.48727  1.0000
  C   C442      1.0  0.47744  0.46816  0.23137  1.0000
  H   H780      1.0  0.48049  0.04360  0.28044  1.0000
  H   H781      1.0  0.24052  0.34050  0.41901  1.0000
  C   C443      1.0  0.47100  0.06051  0.31951  1.0000
  H   H782      1.0  0.42549  0.99432  0.03341  1.0000
  C   C444      1.0  0.23990  0.29838  0.15413  1.0000
  C   C445      1.0  0.47425  0.01451  0.16851  1.0000
  C   C446      1.0  0.24526  0.06282  0.12615  1.0000
  H   H783      1.0  0.24424  0.32409  0.45287  1.0000
  H   H784      1.0  0.27018  0.28620  0.48068  1.0000
  H   H785      1.0  0.25203  0.16092  0.27971  1.0000
  C   C447      1.0  0.42099  0.38986  0.00617  1.0000
  C   C448      1.0  0.35138  0.00284  0.40026  1.0000
  H   H786      1.0  0.46866  0.45991  0.45614  1.0000
  H   H787      1.0  0.23378  0.04351  0.12463  1.0000
  H   H788      1.0  0.43923  0.99422  0.26363  1.0000
  H   H789      1.0  0.48263  0.38637  0.03193  1.0000
  H   H790      1.0  0.41288  0.49294  0.16878  1.0000
  S   S104      1.0  0.28972  0.22484  0.99908  1.0000
  H   H791      1.0  0.43171  0.01250  0.57540  1.0000
  H   H792      1.0  0.28906  0.25575  0.89666  1.0000
  S   S105      1.0  0.27261  0.38722  0.74304  1.0000
  H   H793      1.0  0.28273  0.35909  0.88021  1.0000
  N   N28       1.0  0.26949  0.19136  0.81367  1.0000
  H   H794      1.0  0.28019  0.03903  0.57965  1.0000
  C   C449      1.0  0.25462  0.29029  0.96895  1.0000
  S   S106      1.0  0.30329  0.19675  0.55711  1.0000
  Fe  Fe53      1.0  0.28057  0.21397  0.94571  1.0000
  S   S107      1.0  0.31650  0.23711  0.92594  1.0000
  S   S108      1.0  0.24875  0.21312  0.92078  1.0000
  Fe  Fe54      1.0  0.32310  0.20604  0.93429  1.0000
  S   S109      1.0  0.34170  0.19658  0.89238  1.0000
  Fe  Fe55      1.0  0.32630  0.24697  0.97967  1.0000
  H   H795      1.0  0.33136  0.07546  0.58999  1.0000
  S   S110      1.0  0.28635  0.18198  0.95107  1.0000
  C   C450      1.0  0.40177  0.40679  0.77664  1.0000
  Fe  Fe56      1.0  0.30358  0.09809  0.74716  1.0000
  S   S111      1.0  0.33773  0.11774  0.71906  1.0000
  S   S112      1.0  0.28964  0.11111  0.79114  1.0000
  Fe  Fe57      1.0  0.28987  0.05222  0.70710  1.0000
  S   S113      1.0  0.32284  0.06897  0.67653  1.0000
  S   S114      1.0  0.26728  0.01235  0.70576  1.0000
  Fe  Fe58      1.0  0.34069  0.08409  0.72479  1.0000
  S   S115      1.0  0.37409  0.08218  0.73572  1.0000
  Fe  Fe59      1.0  0.31666  0.10082  0.67319  1.0000
  S   S116      1.0  0.32404  0.11731  0.62096  1.0000
  S   S117      1.0  0.30815  0.06577  0.75583  1.0000
  S   S118      1.0  0.28204  0.08285  0.70077  1.0000
  Fe  Fe60      1.0  0.41931  0.39578  0.59266  1.0000
  S   S119      1.0  0.39665  0.41052  0.57326  1.0000
  S   S120      1.0  0.42067  0.36415  0.56793  1.0000
  Fe  Fe61      1.0  0.43430  0.43024  0.65311  1.0000
  S   S121      1.0  0.41173  0.44661  0.63724  1.0000
  S   S122      1.0  0.45358  0.43605  0.70256  1.0000
  Fe  Fe62      1.0  0.38441  0.40927  0.62649  1.0000
  S   S123      1.0  0.34548  0.38629  0.63560  1.0000
  Fe  Fe63      1.0  0.42626  0.44613  0.58540  1.0000
  S   S124      1.0  0.43569  0.47542  0.54669  1.0000
  S   S125      1.0  0.40605  0.39300  0.64533  1.0000
  S   S126      1.0  0.45009  0.43154  0.60178  1.0000
  H   H796      1.0  0.46198  0.01161  0.69474  1.0000
  S   S127      1.0  0.38340  0.02234  0.85531  1.0000
  H   H797      1.0  0.41137  0.31943  0.53872  1.0000
  S   S128      1.0  0.44221  0.01009  0.85486  1.0000
  H   H798      1.0  0.29268  0.28687  0.85707  1.0000
  H   H799      1.0  0.42498  0.00756  0.71786  1.0000
  H   H800      1.0  0.38777  0.15850  0.75509  1.0000
  H   H801      1.0  0.34195  0.02839  0.67739  1.0000
  C   C451      1.0  0.29220  0.16192  0.74514  1.0000
  H   H802      1.0  0.39046  0.13173  0.75489  1.0000
  H   H803      1.0  0.44332  0.40082  0.95182  1.0000
  H   H804      1.0  0.30640  0.00724  0.64363  1.0000
  C   C452      1.0  0.47413  0.99475  0.97538  1.0000
  C   C453      1.0  0.37554  0.06348  0.76706  1.0000
  C   C454      1.0  0.39580  0.06078  0.76960  1.0000
  C   C455      1.0  0.39808  0.04720  0.79556  1.0000
  C   C456      1.0  0.38028  0.03671  0.81961  1.0000
  C   C457      1.0  0.35995  0.03923  0.81689  1.0000
  C   C458      1.0  0.35741  0.05220  0.79044  1.0000
  H   H805      1.0  0.40993  0.06949  0.75165  1.0000
  H   H806      1.0  0.41393  0.04560  0.79765  1.0000
  H   H807      1.0  0.34622  0.03131  0.83555  1.0000
  H   H808      1.0  0.34165  0.05387  0.78850  1.0000
  C   C459      1.0  0.40463  0.38519  0.78791  1.0000
  H   H809      1.0  0.32172  0.05060  0.56172  1.0000
  H   H810      1.0  0.44304  0.01179  0.66191  1.0000
  C   C460      1.0  0.30971  0.17506  0.57477  1.0000
  C   C461      1.0  0.32255  0.16591  0.55721  1.0000
  C   C462      1.0  0.32733  0.14877  0.57225  1.0000
  C   C463      1.0  0.31916  0.14040  0.60476  1.0000
  C   C464      1.0  0.30652  0.14971  0.62248  1.0000
  C   C465      1.0  0.30194  0.16706  0.60758  1.0000
  H   H811      1.0  0.32883  0.17205  0.53210  1.0000
  H   H812      1.0  0.33735  0.14185  0.55850  1.0000
  H   H813      1.0  0.30010  0.14341  0.64750  1.0000
  H   H814      1.0  0.29206  0.17410  0.62141  1.0000
  C   C466      1.0  0.32718  0.17253  0.86469  1.0000
  C   C467      1.0  0.30492  0.15424  0.87204  1.0000
  C   C468      1.0  0.29397  0.13534  0.84956  1.0000
  C   C469      1.0  0.30506  0.13450  0.81945  1.0000
  C   C470      1.0  0.32743  0.15266  0.81220  1.0000
  C   C471      1.0  0.33844  0.17155  0.83476  1.0000
  H   H815      1.0  0.29617  0.15457  0.89515  1.0000
  H   H816      1.0  0.27668  0.12134  0.85544  1.0000
  H   H817      1.0  0.33598  0.15249  0.78883  1.0000
  H   H818      1.0  0.35568  0.18561  0.82885  1.0000
  H   H819      1.0  0.25496  0.09398  0.55823  1.0000
  C   C472      1.0  0.48094  0.48448  0.53052  1.0000
  C   C473      1.0  0.39811  0.32384  0.53013  1.0000
  C   C474      1.0  0.39844  0.34500  0.54079  1.0000
  C   C475      1.0  0.38143  0.35067  0.52904  1.0000
  Fe  Fe64      1.0  0.30814  0.20863  0.50246  1.0000
  H   H820      1.0  0.23559  0.04863  0.53194  1.0000
  H   H821      1.0  0.46202  0.01454  0.61538  1.0000
  H   H822      1.0  0.38143  0.36683  0.53693  1.0000
  H   H823      1.0  0.24161  0.33901  0.66622  1.0000
  C   C476      1.0  0.32710  0.38670  0.66851  1.0000
  C   C477      1.0  0.33119  0.40747  0.68530  1.0000
  C   C478      1.0  0.31462  0.40734  0.70879  1.0000
  C   C479      1.0  0.29413  0.38638  0.71604  1.0000
  C   C480      1.0  0.29059  0.36547  0.70021  1.0000
  C   C481      1.0  0.30684  0.36572  0.67625  1.0000
  H   H824      1.0  0.34652  0.42380  0.67905  1.0000
  H   H825      1.0  0.31743  0.42362  0.72085  1.0000
  H   H826      1.0  0.27499  0.34923  0.70565  1.0000
  H   H827      1.0  0.30354  0.34958  0.66330  1.0000
  C   C482      1.0  0.27073  0.27886  0.96618  1.0000
  H   H828      1.0  0.28472  0.21935  0.85033  1.0000
  H   H829      1.0  0.31736  0.27565  0.64463  1.0000
  C   C483      1.0  0.25169  0.23641  0.89408  1.0000
  C   C484      1.0  0.27358  0.25502  0.88593  1.0000
  C   C485      1.0  0.27557  0.27278  0.86358  1.0000
  H   H830      1.0  0.28149  0.28469  0.94286  1.0000
  C   C486      1.0  0.42122  0.32396  0.97431  1.0000
  H   H831      1.0  0.42890  0.40344  0.82806  1.0000
  H   H832      1.0  0.35713  0.37190  0.79334  1.0000
  H   H833      1.0  0.30104  0.06693  0.52914  1.0000
  C   C487      1.0  0.46151  0.48719  0.52172  1.0000
  H   H834      1.0  0.32059  0.30467  0.54131  1.0000
  C   C488      1.0  0.37982  0.42532  0.75308  1.0000
  H   H835      1.0  0.25522  0.02632  0.64274  1.0000
  C   C489      1.0  0.29010  0.20897  0.83304  1.0000
  C   C490      1.0  0.29422  0.07264  0.55120  1.0000
  H   H836      1.0  0.26108  0.40431  0.59735  1.0000
  C   C491      1.0  0.36440  0.33547  0.50679  1.0000
  Fe  Fe65      1.0  0.40453  0.00241  0.86019  1.0000
  H   H837      1.0  0.31412  0.35081  0.79410  1.0000
  H   H838      1.0  0.26967  0.17780  0.74264  1.0000
  H   H839      1.0  0.30141  0.43030  0.61071  1.0000
  H   H840      1.0  0.38225  0.45688  0.70188  1.0000
  C   C492      1.0  0.25188  0.04782  0.53848  1.0000
  H   H841      1.0  0.48050  0.47527  0.55334  1.0000
  C   C493      1.0  0.29204  0.41372  0.62539  1.0000
  H   H842      1.0  0.38018  0.43504  0.77651  1.0000
  H   H843      1.0  0.45810  0.48384  0.69676  1.0000
  H   H844      1.0  0.31952  0.21662  0.79890  1.0000
  H   H845      1.0  0.31625  0.04573  0.60606  1.0000
  H   H846      1.0  0.41330  0.47541  0.70395  1.0000
  H   H847      1.0  0.33867  0.29836  0.60417  1.0000
  H   H848      1.0  0.29681  0.19968  0.84971  1.0000
  H   H849      1.0  0.26575  0.30969  0.96831  1.0000
  H   H850      1.0  0.39512  0.47296  0.73985  1.0000
  C   C494      1.0  0.31726  0.05736  0.58489  1.0000
  H   H851      1.0  0.44270  0.40412  0.78801  1.0000
  C   C495      1.0  0.29037  0.99921  0.80431  1.0000
  H   H852      1.0  0.42989  0.37737  0.81258  1.0000
  H   H853      1.0  0.25581  0.05938  0.61068  1.0000
  H   H854      1.0  0.31815  0.37315  0.82510  1.0000
  N   N29       1.0  0.27150  0.07254  0.54295  1.0000
  H   H855      1.0  0.38078  0.29223  0.50008  1.0000
  H   H856      1.0  0.37734  0.17668  0.88686  1.0000
  H   H857      1.0  0.44302  0.43930  0.50396  1.0000
  C   C496      1.0  0.48043  0.46187  0.75512  1.0000
  H   H858      1.0  0.40692  0.31212  0.95770  1.0000
  H   H859      1.0  0.25714  0.36148  0.89337  1.0000
  H   H860      1.0  0.48244  0.00606  0.79535  1.0000
  H   H861      1.0  0.35172  0.99512  0.93192  1.0000
  H   H862      1.0  0.25559  0.36832  0.62402  1.0000
  C   C497      1.0  0.25187  0.38035  0.64048  1.0000
  H   H863      1.0  0.25784  0.08358  0.50131  1.0000
  H   H864      1.0  0.40526  0.41885  0.79846  1.0000
  C   C498      1.0  0.47316  0.39481  0.95331  1.0000
  H   H865      1.0  0.46733  0.39255  0.51266  1.0000
  C   C499      1.0  0.42797  0.39310  0.80521  1.0000
  C   C500      1.0  0.46199  0.99789  0.60755  1.0000
  H   H866      1.0  0.41644  0.41623  0.75852  1.0000
  C   C501      1.0  0.25571  0.27231  0.84932  1.0000
  C   C502      1.0  0.27490  0.08549  0.51010  1.0000
  H   H867      1.0  0.29680  0.16540  0.71814  1.0000
  H   H868      1.0  0.29117  0.06541  0.60510  1.0000
  C   C503      1.0  0.23676  0.99395  0.61468  1.0000
  C   C504      1.0  0.24933  0.00749  0.64214  1.0000
  H   H869      1.0  0.24764  0.03768  0.56217  1.0000
  H   H870      1.0  0.24880  0.41175  0.68894  1.0000
  S   S129      1.0  0.33687  0.21809  0.98651  1.0000
  C   C505      1.0  0.27543  0.17379  0.79573  1.0000
  H   H871      1.0  0.45150  0.00903  0.54614  1.0000
  C   C506      1.0  0.32603  0.01358  0.68841  1.0000
  H   H872      1.0  0.39066  0.37384  0.80575  1.0000
  H   H873      1.0  0.26887  0.17325  0.88049  1.0000
  H   H874      1.0  0.39314  0.40874  0.97777  1.0000
  C   C507      1.0  0.38274  0.16668  0.90424  1.0000
  H   H875      1.0  0.26545  0.10564  0.98419  1.0000
  S   S130      1.0  0.25971  0.29407  0.81918  1.0000
  C   C508      1.0  0.25620  0.32769  0.90479  1.0000
  H   H876      1.0  0.24550  0.18955  0.77562  1.0000
  C   C509      1.0  0.46814  0.46228  0.72662  1.0000
  C   C510      1.0  0.37233  0.13623  0.79868  1.0000
  C   C511      1.0  0.25606  0.03239  0.51181  1.0000
  N   N30       1.0  0.37878  0.40176  0.76125  1.0000
  C   C512      1.0  0.35941  0.38969  0.78687  1.0000
  H   H877      1.0  0.29673  0.40031  0.61492  1.0000
  C   C513      1.0  0.37501  0.38770  0.72931  1.0000
  C   C514      1.0  0.36135  0.36031  0.73237  1.0000
  C   C515      1.0  0.33527  0.38714  0.77688  1.0000
  C   C516      1.0  0.40082  0.44231  0.73095  1.0000
  C   C517      1.0  0.36301  0.34829  0.70007  1.0000
  C   C518      1.0  0.31543  0.36859  0.79815  1.0000
  C   C519      1.0  0.39100  0.14616  0.77101  1.0000
  C   C520      1.0  0.25332  0.22123  0.80374  1.0000
  C   C521      1.0  0.30812  0.28937  0.55649  1.0000
  H   H878      1.0  0.36534  0.39263  0.71080  1.0000
  H   H879      1.0  0.39210  0.39241  0.71673  1.0000
  H   H880      1.0  0.34257  0.35450  0.73744  1.0000
  H   H881      1.0  0.36777  0.35342  0.75283  1.0000
  H   H882      1.0  0.30670  0.23631  0.79390  1.0000
  H   H883      1.0  0.33161  0.38216  0.75027  1.0000
  H   H884      1.0  0.33567  0.00961  0.94861  1.0000
  H   H885      1.0  0.40007  0.17904  0.91430  1.0000
  H   H886      1.0  0.40472  0.37467  0.76580  1.0000
  C   C522      1.0  0.46752  0.48324  0.71850  1.0000
  H   H887      1.0  0.38135  0.35220  0.69496  1.0000
  H   H888      1.0  0.35221  0.32886  0.70253  1.0000
  H   H889      1.0  0.35649  0.35442  0.67867  1.0000
  H   H890      1.0  0.40864  0.15595  0.78183  1.0000
  C   C523      1.0  0.24984  0.17796  0.83846  1.0000
  H   H891      1.0  0.26033  0.38057  0.66461  1.0000
  H   H892      1.0  0.29863  0.36786  0.79082  1.0000
  H   H893      1.0  0.27817  0.14344  0.74799  1.0000
  H   H894      1.0  0.47685  0.00332  0.58934  1.0000
  H   H895      1.0  0.40296  0.34348  0.98709  1.0000
  C   C524      1.0  0.42075  0.34753  0.97798  1.0000
  C   C525      1.0  0.26933  0.35451  0.90043  1.0000
  S   S131      1.0  0.24648  0.34492  0.81921  1.0000
  C   C526      1.0  0.26496  0.08558  0.56942  1.0000
  C   C527      1.0  0.38075  0.30836  0.50835  1.0000
  H   H896      1.0  0.31595  0.02117  0.70191  1.0000
  H   H897      1.0  0.42679  0.01458  0.97961  1.0000
  H   H898      1.0  0.46617  0.42187  0.97604  1.0000
  H   H899      1.0  0.29791  0.41752  0.65160  1.0000
  H   H900      1.0  0.28510  0.01308  0.80999  1.0000
  H   H901      1.0  0.42354  0.35592  0.95297  1.0000
  S   S132      1.0  0.46446  0.00890  0.94599  1.0000
  H   H902      1.0  0.40320  0.43294  0.70899  1.0000
  H   H903      1.0  0.48273  0.44551  0.50284  1.0000
  C   C528      1.0  0.46372  0.48745  0.99521  1.0000
  H   H904      1.0  0.37349  0.15145  0.81344  1.0000
  H   H905      1.0  0.29879  0.19735  0.75569  1.0000
  H   H906      1.0  0.26213  0.41860  0.63662  1.0000
  H   H907      1.0  0.43812  0.32664  0.96322  1.0000
  H   H908      1.0  0.41001  0.38151  0.98403  1.0000
  H   H909      1.0  0.30317  0.25481  0.69817  1.0000
  H   H910      1.0  0.26631  0.09856  0.63671  1.0000
  H   H911      1.0  0.28275  0.28422  0.98768  1.0000
  Fe  Fe66      1.0  0.24394  0.35346  0.76584  1.0000
  H   H912      1.0  0.46316  0.37736  0.94121  1.0000
  C   C529      1.0  0.29388  0.05762  0.58167  1.0000
  S   S133      1.0  0.34147  0.28659  0.98979  1.0000
  H   H913      1.0  0.39434  0.12742  0.82832  1.0000
  H   H914      1.0  0.38095  0.22067  0.56276  1.0000
  H   H915      1.0  0.27410  0.21286  0.76947  1.0000
  C   C530      1.0  0.33010  0.24448  0.83466  1.0000
  H   H916      1.0  0.33612  0.23551  0.85293  1.0000
  H   H917      1.0  0.34537  0.25666  0.81924  1.0000
  H   H918      1.0  0.32314  0.25507  0.84845  1.0000
  N   N31       1.0  0.35965  0.10888  0.85106  1.0000
  C   C531      1.0  0.37581  0.11838  0.82095  1.0000
  C   C532      1.0  0.36537  0.09216  0.87103  1.0000
  C   C533      1.0  0.33514  0.09488  0.83831  1.0000
  C   C534      1.0  0.36012  0.12836  0.87299  1.0000
  C   C535      1.0  0.31572  0.08298  0.86554  1.0000
  C   C536      1.0  0.39110  0.09667  0.87063  1.0000
  C   C537      1.0  0.39469  0.08090  0.89599  1.0000
  C   C538      1.0  0.29306  0.06445  0.85035  1.0000
  H   H919      1.0  0.37413  0.10347  0.80468  1.0000
  H   H920      1.0  0.35980  0.09157  0.89766  1.0000
  H   H921      1.0  0.35530  0.07367  0.86182  1.0000
  H   H922      1.0  0.33441  0.08103  0.82068  1.0000
  H   H923      1.0  0.32977  0.10618  0.82361  1.0000
  H   H924      1.0  0.35216  0.13813  0.86001  1.0000
  H   H925      1.0  0.34887  0.12084  0.89563  1.0000
  H   H926      1.0  0.31198  0.09650  0.87787  1.0000
  H   H927      1.0  0.32073  0.07402  0.88504  1.0000
  H   H928      1.0  0.39577  0.09244  0.84547  1.0000
  H   H929      1.0  0.40341  0.11524  0.87654  1.0000
  C   C539      1.0  0.25415  0.16229  0.86406  1.0000
  H   H930      1.0  0.39214  0.08572  0.92190  1.0000
  H   H931      1.0  0.38229  0.06203  0.89162  1.0000
  H   H932      1.0  0.28684  0.07252  0.83106  1.0000
  H   H933      1.0  0.29572  0.05007  0.83874  1.0000
  H   H934      1.0  0.27934  0.05672  0.87016  1.0000
  N   N32       1.0  0.35199  0.27280  0.60100  1.0000
  C   C540      1.0  0.34186  0.28737  0.58530  1.0000
  C   C541      1.0  0.37559  0.28884  0.61575  1.0000
  C   C542      1.0  0.35569  0.25837  0.57367  1.0000
  C   C543      1.0  0.33569  0.25576  0.62691  1.0000
  C   C544      1.0  0.32660  0.26630  0.65493  1.0000
  C   C545      1.0  0.31901  0.27353  0.56576  1.0000
  C   C546      1.0  0.36742  0.24311  0.58449  1.0000
  C   C547      1.0  0.37957  0.31322  0.62949  1.0000
  C   C548      1.0  0.40314  0.32606  0.64659  1.0000
  C   C549      1.0  0.30931  0.24685  0.67809  1.0000
  C   C550      1.0  0.26078  0.20323  0.78910  1.0000
  C   C551      1.0  0.37248  0.23132  0.55436  1.0000
  H   H935      1.0  0.35477  0.30029  0.56743  1.0000
  H   H936      1.0  0.30301  0.29591  0.57935  1.0000
  H   H937      1.0  0.37974  0.27955  0.63599  1.0000
  H   H938      1.0  0.38971  0.29336  0.59646  1.0000
  H   H939      1.0  0.36631  0.27013  0.55285  1.0000
  H   H940      1.0  0.33882  0.24577  0.56250  1.0000
  H   H941      1.0  0.32031  0.24125  0.61470  1.0000
  H   H942      1.0  0.34438  0.24668  0.63984  1.0000
  H   H943      1.0  0.45453  0.40811  0.53610  1.0000
  H   H944      1.0  0.34123  0.27852  0.67056  1.0000
  H   H945      1.0  0.32295  0.26698  0.54204  1.0000
  H   H946      1.0  0.30587  0.25836  0.58037  1.0000
  H   H947      1.0  0.35570  0.22875  0.60168  1.0000
  H   H948      1.0  0.38418  0.25385  0.59717  1.0000
  H   H949      1.0  0.37974  0.32474  0.60867  1.0000
  H   H950      1.0  0.36584  0.31162  0.64762  1.0000
  H   H951      1.0  0.41752  0.32846  0.62890  1.0000
  H   H952      1.0  0.40608  0.34386  0.65468  1.0000
  H   H953      1.0  0.40367  0.31606  0.66889  1.0000
  H   H954      1.0  0.23292  0.00243  0.59423  1.0000
  H   H955      1.0  0.25983  0.15605  0.79472  1.0000
  H   H956      1.0  0.31772  0.23712  0.68994  1.0000
  C   C552      1.0  0.28413  0.17933  0.75873  1.0000
  Fe  Fe67      1.0  0.23478  0.30771  0.80226  1.0000
  C   C553      1.0  0.39755  0.46312  0.71847  1.0000
  H   H957      1.0  0.26926  0.32175  0.91110  1.0000
  H   H958      1.0  0.33493  0.40424  0.78046  1.0000
  H   H959      1.0  0.27819  0.36311  0.92391  1.0000
  H   H960      1.0  0.36997  0.15994  0.92542  1.0000
  H   H961      1.0  0.39072  0.13769  0.90391  1.0000
  H   H962      1.0  0.38430  0.24476  0.53610  1.0000
  C   C554      1.0  0.38429  0.14639  0.88592  1.0000
  C   C555      1.0  0.44590  0.00071  0.68060  1.0000
  H   H963      1.0  0.35521  0.12755  0.78639  1.0000
  H   H964      1.0  0.41270  0.08309  0.89335  1.0000
  H   H965      1.0  0.29391  0.23419  0.66390  1.0000
  H   H966      1.0  0.39723  0.15427  0.86525  1.0000
  H   H967      1.0  0.36378  0.42263  0.73987  1.0000
  H   H968      1.0  0.25804  0.14906  0.85138  1.0000
  H   H969      1.0  0.43489  0.42761  0.99227  1.0000
  H   H970      1.0  0.30790  0.16397  0.75845  1.0000
  H   H971      1.0  0.24041  0.24519  0.78683  1.0000
  C   C556      1.0  0.31146  0.22636  0.81215  1.0000
  H   H972      1.0  0.29231  0.27914  0.54143  1.0000
  H   H973      1.0  0.36407  0.39960  0.81092  1.0000
  C   C557      1.0  0.26576  0.40514  0.62411  1.0000
  H   H974      1.0  0.27169  0.03032  0.51774  1.0000
  H   H975      1.0  0.29395  0.10673  0.98180  1.0000
  H   H976      1.0  0.35599  0.21925  0.54188  1.0000
  H   H977      1.0  0.28862  0.17101  0.80994  1.0000
  H   H978      1.0  0.28095  0.10047  0.57961  1.0000
  H   H979      1.0  0.33118  0.00408  0.70697  1.0000
  H   H980      1.0  0.41711  0.44990  0.74560  1.0000
  H   H981      1.0  0.30790  0.09094  0.55646  1.0000
  H   H982      1.0  0.29585  0.00863  0.55165  1.0000
  H   H983      1.0  0.26775  0.23527  0.81776  1.0000
  C   C558      1.0  0.43572  0.99944  0.56224  1.0000
  C   C559      1.0  0.45628  0.40252  0.97104  1.0000
  H   H984      1.0  0.34885  0.01734  0.90751  1.0000
  H   H985      1.0  0.28738  0.12191  0.52920  1.0000
  C   C560      1.0  0.24951  0.07104  0.59944  1.0000
  H   H986      1.0  0.23647  0.13809  0.90501  1.0000
  H   H987      1.0  0.47614  0.41424  0.90720  1.0000
  C   C561      1.0  0.24668  0.23315  0.77583  1.0000
  C   C562      1.0  0.23371  0.25391  0.85777  1.0000
  H   H988      1.0  0.39625  0.00681  0.98521  1.0000
  C   C563      1.0  0.28267  0.11241  0.99633  1.0000
  H   H989      1.0  0.31025  0.11513  0.51546  1.0000
  H   H990      1.0  0.26205  0.24379  0.75947  1.0000
  H   H991      1.0  0.48099  0.44575  0.76170  1.0000
  H   H992      1.0  0.24594  0.19033  0.85373  1.0000
  H   H993      1.0  0.23784  0.21239  0.82052  1.0000
  H   H994      1.0  0.42786  0.40835  0.50461  1.0000
  H   H995      1.0  0.26050  0.25927  0.96621  1.0000
  H   H996      1.0  0.30718  0.00750  0.79005  1.0000
  C   C564      1.0  0.23523  0.00768  0.51024  1.0000
  H   H997      1.0  0.33986  0.00059  0.63016  1.0000
  C   C565      1.0  0.31104  0.99676  0.66110  1.0000
  C   C566      1.0  0.47011  0.41005  0.52183  1.0000
  C   C567      1.0  0.29237  0.11230  0.51023  1.0000
  C   C568      1.0  0.33981  0.00254  0.92547  1.0000
  H   H998      1.0  0.39858  0.43138  0.50565  1.0000
  H   H999      1.0  0.24554  0.28247  0.91649  1.0000
  H   H1000     1.0  0.30658  0.00249  0.85150  1.0000
  H   H1001     1.0  0.23351  0.16642  0.82498  1.0000
  H   H1002     1.0  0.24138  0.09877  0.61726  1.0000
  H   H1003     1.0  0.23724  0.07650  0.64796  1.0000
  H   H1004     1.0  0.24564  0.28537  0.99374  1.0000
  C   C569      1.0  0.25331  0.99643  0.66952  1.0000
  H   H1005     1.0  0.32093  0.99505  0.58114  1.0000
  H   H1006     1.0  0.29106  0.13204  0.99608  1.0000
  H   H1007     1.0  0.24855  0.31983  0.88043  1.0000
  S   S134      1.0  0.23445  0.31692  0.74806  1.0000
  C   C570      1.0  0.23642  0.28170  0.94062  1.0000
  H   H1008     1.0  0.44963  0.49147  0.98973  1.0000
  H   H1009     1.0  0.24561  0.32943  0.95602  1.0000
  C   C571      1.0  0.23699  0.32062  0.93243  1.0000
  C   C572      1.0  0.24857  0.08728  0.62695  1.0000
  C   C573      1.0  0.41257  0.01049  0.99835  1.0000
  H   H1010     1.0  0.45532  0.36233  0.99907  1.0000
  H   H1011     1.0  0.41850  0.31514  0.99905  1.0000
  S   S135      1.0  0.39567  0.97618  0.35165  1.0000
  H   H1012     1.0  0.24867  0.91586  0.43415  1.0000
  S   S136      1.0  0.42097  0.95795  0.40648  1.0000
  Fe  Fe68      1.0  0.43016  0.97586  0.35593  1.0000
  S   S137      1.0  0.44300  0.96086  0.31304  1.0000
  Fe  Fe69      1.0  0.38791  0.96157  0.40404  1.0000
  S   S138      1.0  0.35076  0.93215  0.41175  1.0000
  H   H1013     1.0  0.44750  0.50156  0.48509  1.0000
  H   H1014     1.0  0.24823  0.91348  0.38920  1.0000
  H   H1015     1.0  0.43002  0.95278  0.02647  1.0000
  C   C574      1.0  0.33191  0.92918  0.44612  1.0000
  C   C575      1.0  0.33892  0.94525  0.47259  1.0000
  H   H1016     1.0  0.38277  0.94239  0.24432  1.0000
  H   H1017     1.0  0.44320  0.92559  0.41409  1.0000
  C   C576      1.0  0.46906  0.96165  0.25762  1.0000
  C   C577      1.0  0.30916  0.91023  0.44661  1.0000
  H   H1018     1.0  0.35633  0.95995  0.47246  1.0000
  H   H1019     1.0  0.46991  0.53333  0.11607  1.0000
  H   H1020     1.0  0.45888  0.91038  0.39806  1.0000
  H   H1021     1.0  0.30361  0.89767  0.42627  1.0000
  H   H1022     1.0  0.28901  0.94642  0.43322  1.0000
  H   H1023     1.0  0.44105  0.50400  0.18833  1.0000
  C   C578      1.0  0.46731  0.97172  0.49411  1.0000
  H   H1024     1.0  0.44528  0.93130  0.06141  1.0000
  S   S139      1.0  0.23506  0.90182  0.08076  1.0000
  C   C579      1.0  0.30271  0.98204  0.35362  1.0000
  H   H1025     1.0  0.35972  0.90322  0.05260  1.0000
  C   C580      1.0  0.41303  0.94604  0.04026  1.0000
  H   H1026     1.0  0.25650  0.90766  0.14891  1.0000
  H   H1027     1.0  0.40462  0.90834  0.04205  1.0000
  C   C581      1.0  0.40528  0.98021  0.24028  1.0000
  H   H1028     1.0  0.33640  0.94440  0.27005  1.0000
  H   H1029     1.0  0.47796  0.55005  0.47926  1.0000
  C   C582      1.0  0.32375  0.95527  0.31404  1.0000
  H   H1030     1.0  0.46651  0.95924  0.37480  1.0000
  C   C583      1.0  0.46734  0.97456  0.28517  1.0000
  C   C584      1.0  0.37233  0.94043  0.03669  1.0000
  C   C585      1.0  0.29361  0.90715  0.47349  1.0000
  H   H1031     1.0  0.31730  0.96528  0.29849  1.0000
  H   H1032     1.0  0.34079  0.92001  0.09121  1.0000
  H   H1033     1.0  0.34096  0.95844  0.36127  1.0000
  C   C586      1.0  0.33277  0.96789  0.34791  1.0000
  H   H1034     1.0  0.34994  0.94301  0.30841  1.0000
  C   C587      1.0  0.40866  0.92333  0.05927  1.0000
  H   H1035     1.0  0.38012  0.90692  0.00370  1.0000
  S   S140      1.0  0.28640  0.92537  0.01775  1.0000
  H   H1036     1.0  0.35779  0.97125  0.28883  1.0000
  C   C588      1.0  0.33374  0.91388  0.06588  1.0000
  H   H1037     1.0  0.44075  0.91699  0.37080  1.0000
  H   H1038     1.0  0.31945  0.89547  0.06790  1.0000
  H   H1039     1.0  0.36338  0.94939  0.02393  1.0000
  H   H1040     1.0  0.39499  0.49507  0.22316  1.0000
  H   H1041     1.0  0.32753  0.96951  0.42027  1.0000
  H   H1042     1.0  0.30955  0.93703  0.31774  1.0000
  C   C589      1.0  0.25948  0.91753  0.41144  1.0000
  H   H1043     1.0  0.29236  0.97125  0.33226  1.0000
  H   H1044     1.0  0.42666  0.91083  0.09280  1.0000
  H   H1045     1.0  0.41300  0.95146  0.25263  1.0000
  N   N33       1.0  0.39405  0.94402  0.01709  1.0000
  C   C590      1.0  0.47362  0.94732  0.38267  1.0000
  H   H1046     1.0  0.45557  0.94373  0.25383  1.0000
  H   H1047     1.0  0.23893  0.93826  0.18707  1.0000
  H   H1048     1.0  0.34444  0.90708  0.01788  1.0000
  H   H1049     1.0  0.31494  0.98886  0.41573  1.0000
  H   H1050     1.0  0.39499  0.95646  0.28340  1.0000
  H   H1051     1.0  0.46602  0.50360  0.11314  1.0000
  C   C591      1.0  0.39865  0.95621  0.25623  1.0000
  C   C592      1.0  0.43026  0.92715  0.07876  1.0000
  H   H1052     1.0  0.44392  0.51400  0.31449  1.0000
  H   H1053     1.0  0.26617  0.92157  0.18914  1.0000
  C   C593      1.0  0.35284  0.91469  0.04210  1.0000
  H   H1054     1.0  0.37708  0.94894  0.06170  1.0000
  C   C594      1.0  0.34323  0.95342  0.29420  1.0000
  H   H1055     1.0  0.46506  0.55656  0.42415  1.0000
  H   H1056     1.0  0.28964  0.98323  0.37077  1.0000
  C   C595      1.0  0.45290  0.92362  0.39214  1.0000
  H   H1057     1.0  0.32624  0.92514  0.05630  1.0000
  C   C596      1.0  0.29659  0.94502  0.37946  1.0000
  H   H1058     1.0  0.39409  0.91850  0.07756  1.0000
  Fe  Fe70      1.0  0.24743  0.90229  0.02750  1.0000
  H   H1059     1.0  0.30508  0.93389  0.38597  1.0000
  H   H1060     1.0  0.34743  0.98545  0.34171  1.0000
  H   H1061     1.0  0.27209  0.95484  0.40658  1.0000
  C   C597      1.0  0.47361  0.57148  0.44187  1.0000
  C   C598      1.0  0.32613  0.98228  0.40272  1.0000
  H   H1062     1.0  0.28553  0.93634  0.35753  1.0000
  H   H1063     1.0  0.41609  0.95961  0.05975  1.0000
  H   H1064     1.0  0.39511  0.98654  0.03859  1.0000
  C   C599      1.0  0.27970  0.94260  0.40910  1.0000
  H   H1065     1.0  0.27632  0.89222  0.47388  1.0000
  N   N34       1.0  0.31488  0.96988  0.37064  1.0000
  H   H1066     1.0  0.24888  0.96511  0.11113  1.0000
  H   H1067     1.0  0.42673  0.52225  0.18618  1.0000
  H   H1068     1.0  0.43512  0.94186  0.09689  1.0000
  H   H1069     1.0  0.26609  0.90437  0.41325  1.0000
  H   H1070     1.0  0.48265  0.94385  0.36121  1.0000
  C   C600      1.0  0.23833  0.97287  0.12092  1.0000
  H   H1071     1.0  0.45985  0.57349  0.45635  1.0000
  H   H1072     1.0  0.27125  0.93939  0.15210  1.0000
  C   C601      1.0  0.40901  0.98937  0.01990  1.0000
  C   C602      1.0  0.23542  0.92310  0.17042  1.0000
  H   H1073     1.0  0.46139  0.50062  0.32794  1.0000
  H   H1074     1.0  0.40896  0.97889  0.21347  1.0000
  H   H1075     1.0  0.38980  0.98336  0.24215  1.0000
  C   C603      1.0  0.25872  0.92282  0.16486  1.0000
  C   C604      1.0  0.24786  0.99189  0.14398  1.0000
  H   H1076     1.0  0.45260  0.96090  0.47866  1.0000
  H   H1077     1.0  0.44580  0.99077  0.19925  1.0000
  H   H1078     1.0  0.24639  0.99189  0.01538  1.0000
  C   C605      1.0  0.46247  0.49939  0.49211  1.0000
  H   H1079     1.0  0.42299  0.50625  0.24293  1.0000
  H   H1080     1.0  0.47620  0.52280  0.05807  1.0000
  C   C606      1.0  0.48244  0.50833  0.47106  1.0000
  H   H1081     1.0  0.48270  0.51701  0.44781  1.0000
  C   C607      1.0  0.42384  0.50385  0.18956  1.0000
  H   H1082     1.0  0.47984  0.95757  0.43462  1.0000
  C   C608      1.0  0.47906  0.52257  0.11128  1.0000
  C   C609      1.0  0.41171  0.49424  0.22328  1.0000
  C   C610      1.0  0.44320  0.49726  0.32351  1.0000
  S   S141      1.0  0.39070  0.96676  0.83637  1.0000
  C   C611      1.0  0.40872  0.92584  0.96991  1.0000
  S   S142      1.0  0.42454  0.95571  0.88469  1.0000
  Fe  Fe71      1.0  0.42798  0.97311  0.83457  1.0000
  S   S143      1.0  0.44065  0.96028  0.78898  1.0000
  Fe  Fe72      1.0  0.38863  0.95313  0.88848  1.0000
  S   S144      1.0  0.35550  0.92093  0.90594  1.0000
  H   H1083     1.0  0.41599  0.90593  0.93155  1.0000
  C   C612      1.0  0.32730  0.94295  0.82020  1.0000
  C   C613      1.0  0.27919  0.94382  0.87807  1.0000
  C   C614      1.0  0.33593  0.92248  0.93618  1.0000
  C   C615      1.0  0.34098  0.94347  0.95302  1.0000
  H   H1084     1.0  0.36718  0.95009  0.59960  1.0000
  H   H1085     1.0  0.29076  0.92182  0.83276  1.0000
  C   C616      1.0  0.29935  0.90266  0.96843  1.0000
  C   C617      1.0  0.31503  0.90208  0.94396  1.0000
  H   H1086     1.0  0.35680  0.95932  0.94706  1.0000
  N   N35       1.0  0.46589  0.98537  0.63685  1.0000
  C   C618      1.0  0.32343  0.94204  0.49957  1.0000
  H   H1087     1.0  0.31101  0.88572  0.93115  1.0000
  C   C619      1.0  0.30663  0.97690  0.58602  1.0000
  S   S145      1.0  0.28296  0.91852  0.53645  1.0000
  H   H1088     1.0  0.31692  0.97759  0.81543  1.0000
  C   C620      1.0  0.29098  0.93461  0.66340  1.0000
  H   H1089     1.0  0.45711  0.96031  0.95311  1.0000
  H   H1090     1.0  0.45006  0.91366  0.62580  1.0000
  C   C621      1.0  0.46789  0.97071  0.97333  1.0000
  H   H1091     1.0  0.26451  0.93449  0.86052  1.0000
  H   H1092     1.0  0.27315  0.90839  0.89295  1.0000
  H   H1093     1.0  0.26830  0.95972  0.58407  1.0000
  C   C622      1.0  0.46891  0.97265  0.77016  1.0000
  H   H1094     1.0  0.25579  0.90687  0.94813  1.0000
  C   C623      1.0  0.23333  0.95846  0.64085  1.0000
  H   H1095     1.0  0.29499  0.98323  0.67351  1.0000
  H   H1096     1.0  0.27539  0.95728  0.89030  1.0000
  C   C624      1.0  0.32554  0.94398  0.97779  1.0000
  C   C625      1.0  0.43945  0.98362  0.58739  1.0000
  N   N36       1.0  0.30213  0.95511  0.85898  1.0000
  H   H1097     1.0  0.27648  0.95423  0.63816  1.0000
  H   H1098     1.0  0.42795  0.98142  0.72590  1.0000
  H   H1099     1.0  0.35181  0.94345  0.56046  1.0000
  C   C626      1.0  0.47097  0.94803  0.64885  1.0000
  H   H1100     1.0  0.48251  0.98021  0.89859  1.0000
  H   H1101     1.0  0.31771  0.90714  0.80313  1.0000
  H   H1102     1.0  0.33110  0.96112  0.89142  1.0000
  H   H1103     1.0  0.33236  0.97888  0.66160  1.0000
  H   H1104     1.0  0.48139  0.56231  0.53901  1.0000
  H   H1105     1.0  0.44083  0.96943  0.57286  1.0000
  C   C627      1.0  0.40100  0.90421  0.94734  1.0000
  H   H1106     1.0  0.30001  0.92392  0.65746  1.0000
  H   H1107     1.0  0.32908  0.95438  0.52005  1.0000
  C   C628      1.0  0.46417  0.96232  0.62404  1.0000
  H   H1108     1.0  0.44604  0.95018  0.61630  1.0000
  C   C629      1.0  0.27709  0.92552  0.90501  1.0000
  H   H1109     1.0  0.28008  0.93356  0.61232  1.0000
  H   H1110     1.0  0.32289  0.94804  0.79587  1.0000
  C   C630      1.0  0.30462  0.92364  0.98555  1.0000
  H   H1111     1.0  0.47038  0.53550  0.59020  1.0000
  H   H1112     1.0  0.38689  0.90274  0.93057  1.0000
  H   H1113     1.0  0.27597  0.98114  0.85055  1.0000
  H   H1114     1.0  0.41562  0.94154  0.95344  1.0000
  C   C631      1.0  0.25763  0.92105  0.93053  1.0000
  H   H1115     1.0  0.25697  0.92735  0.68465  1.0000
  H   H1116     1.0  0.30646  0.96638  0.56359  1.0000
  C   C632      1.0  0.28891  0.94734  0.63169  1.0000
  H   H1117     1.0  0.46066  0.94156  0.74057  1.0000
  H   H1118     1.0  0.29364  0.93154  0.91855  1.0000
  H   H1119     1.0  0.46554  0.95147  0.85189  1.0000
  H   H1120     1.0  0.37468  0.92426  0.97439  1.0000
  C   C633      1.0  0.35001  0.97172  0.58930  1.0000
  H   H1121     1.0  0.42379  0.97553  0.60398  1.0000
  C   C634      1.0  0.47389  0.95926  0.74637  1.0000
  H   H1122     1.0  0.28714  0.95597  0.81145  1.0000
  H   H1123     1.0  0.41920  0.97103  0.98379  1.0000
  H   H1124     1.0  0.34740  0.98037  0.56697  1.0000
  H   H1125     1.0  0.48135  0.93604  0.86533  1.0000
  C   C635      1.0  0.47332  0.94724  0.87377  1.0000
  H   H1126     1.0  0.45969  0.94295  0.67160  1.0000
  C   C636      1.0  0.32253  0.97106  0.88043  1.0000
  H   H1127     1.0  0.25675  0.90387  0.65893  1.0000
  C   C637      1.0  0.33309  0.92271  0.81323  1.0000
  C   C638      1.0  0.36276  0.95786  0.57781  1.0000
  H   H1128     1.0  0.37915  0.96985  0.56437  1.0000
  H   H1129     1.0  0.33870  0.91748  0.83645  1.0000
  C   C639      1.0  0.30657  0.93540  0.84539  1.0000
  Fe  Fe73      1.0  0.24318  0.89868  0.54091  1.0000
  C   C640      1.0  0.29291  0.98814  0.83685  1.0000
  H   H1130     1.0  0.26873  0.90875  0.70025  1.0000
  C   C641      1.0  0.26685  0.91765  0.67760  1.0000
  H   H1131     1.0  0.33650  0.98488  0.86468  1.0000
  S   S146      1.0  0.40118  0.98840  0.91253  1.0000
  H   H1132     1.0  0.45919  0.93693  0.89215  1.0000
  H   H1133     1.0  0.47256  0.55839  0.96579  1.0000
  C   C642      1.0  0.44762  0.97963  0.66413  1.0000
  H   H1134     1.0  0.34762  0.92847  0.79457  1.0000
  C   C643      1.0  0.32649  0.95524  0.60707  1.0000
  H   H1135     1.0  0.28339  0.88684  0.97440  1.0000
  H   H1136     1.0  0.47120  0.94222  0.51316  1.0000
  H   H1137     1.0  0.31661  0.93989  0.59029  1.0000
  C   C644      1.0  0.28315  0.97789  0.58456  1.0000
  C   C645      1.0  0.47605  0.96022  0.99714  1.0000
  C   C646      1.0  0.46842  0.92517  0.63298  1.0000
  C   C647      1.0  0.29998  0.96854  0.82938  1.0000
  H   H1138     1.0  0.36170  0.98571  0.60656  1.0000
  H   H1139     1.0  0.38993  0.96572  0.97936  1.0000
  H   H1140     1.0  0.30060  0.94743  0.68331  1.0000
  N   N37       1.0  0.31139  0.96657  0.61726  1.0000
  C   C648      1.0  0.31732  0.98356  0.91043  1.0000
  C   C649      1.0  0.32466  0.98564  0.64243  1.0000
  H   H1141     1.0  0.33114  0.94792  0.62917  1.0000
  H   H1142     1.0  0.34306  0.95820  0.82993  1.0000
  H   H1143     1.0  0.31009  0.92600  0.86621  1.0000
  H   H1144     1.0  0.43008  0.96690  0.65504  1.0000
  C   C650      1.0  0.40295  0.96708  0.99818  1.0000
  H   H1145     1.0  0.30773  0.97060  0.93056  1.0000
  C   C651      1.0  0.24525  0.97188  0.66877  1.0000
  C   C652      1.0  0.30079  0.92289  0.50033  1.0000
  H   H1146     1.0  0.45100  0.97043  0.68520  1.0000
  H   H1147     1.0  0.27677  0.98572  0.78833  1.0000
  H   H1148     1.0  0.26190  0.93726  0.94534  1.0000
  H   H1149     1.0  0.24805  0.96319  0.69003  1.0000
  Fe  Fe74      1.0  0.43727  0.99227  0.90528  1.0000
  H   H1150     1.0  0.28274  0.98042  0.53029  1.0000
  C   C653      1.0  0.47903  0.50347  0.73870  1.0000
  H   H1151     1.0  0.40875  0.98135  0.69340  1.0000
  H   H1152     1.0  0.47539  0.96560  0.60121  1.0000
  C   C654      1.0  0.38815  0.92457  0.99166  1.0000
  H   H1153     1.0  0.28069  0.98731  0.60626  1.0000
  H   H1154     1.0  0.47358  0.91544  0.65118  1.0000
  H   H1155     1.0  0.42297  0.92655  0.98560  1.0000
  C   C655      1.0  0.47784  0.96119  0.51378  1.0000
  H   H1156     1.0  0.39467  0.88783  0.96254  1.0000
  C   C656      1.0  0.28165  0.99020  0.55275  1.0000
  H   H1157     1.0  0.32974  0.96028  0.99092  1.0000
  H   H1158     1.0  0.26464  0.99048  0.55256  1.0000
  H   H1159     1.0  0.47990  0.92903  0.61047  1.0000
  H   H1160     1.0  0.24068  0.91538  0.91800  1.0000
  H   H1161     1.0  0.47840  0.51957  0.73221  1.0000
  H   H1162     1.0  0.42095  0.98850  0.54576  1.0000
  C   C657      1.0  0.42562  0.99213  0.70591  1.0000
  H   H1163     1.0  0.47109  0.94160  0.99537  1.0000
  H   H1164     1.0  0.30660  0.99209  0.90331  1.0000
  H   H1165     1.0  0.48284  0.50303  0.94926  1.0000
  C   C658      1.0  0.48257  0.49418  0.97233  1.0000
  H   H1166     1.0  0.50535  0.03715  0.36199  1.0000
  H   H1167     1.0  0.55647  0.99442  0.32370  1.0000
  C   C659      1.0  0.48290  0.40373  0.03499  1.0000
  H   H1168     1.0  0.48340  0.40177  0.08942  1.0000
  S   S147      1.0  0.54262  0.01267  0.11476  1.0000
  H   H1169     1.0  0.52404  0.03118  0.42957  1.0000
  S   S148      1.0  0.61323  0.04538  0.09662  1.0000
  C   C660      1.0  0.50405  0.00764  0.26718  1.0000
  C   C661      1.0  0.67099  0.01298  0.08635  1.0000
  C   C662      1.0  0.49396  0.41367  0.06871  1.0000
  H   H1170     1.0  0.68484  0.03230  0.39003  1.0000
  H   H1171     1.0  0.69081  0.00055  0.33342  1.0000
  C   C663      1.0  0.71539  0.00946  0.37341  1.0000
  C   C664      1.0  0.48901  0.44845  0.42495  1.0000
  H   H1172     1.0  0.62878  0.03577  0.16205  1.0000
  H   H1173     1.0  0.51770  0.02545  0.27114  1.0000
  S   S149      1.0  0.68362  0.07003  0.46688  1.0000
  H   H1174     1.0  0.49410  0.02690  0.00275  1.0000
  C   C665      1.0  0.62444  0.03131  0.03613  1.0000
  C   C666      1.0  0.63215  0.04705  0.06295  1.0000
  C   C667      1.0  0.65550  0.06481  0.06302  1.0000
  C   C668      1.0  0.67108  0.06669  0.03669  1.0000
  H   H1175     1.0  0.51176  0.41521  0.06930  1.0000
  H   H1176     1.0  0.60645  0.01776  0.03554  1.0000
  H   H1177     1.0  0.66154  0.07729  0.08344  1.0000
  H   H1178     1.0  0.68889  0.08063  0.03677  1.0000
  C   C669      1.0  0.50136  0.99940  0.40131  1.0000
  H   H1179     1.0  0.72814  0.05921  0.08254  1.0000
  Fe  Fe75      1.0  0.72202  0.07953  0.46200  1.0000
  H   H1180     1.0  0.66195  0.03613  0.41120  1.0000
  H   H1181     1.0  0.63726  0.06119  0.48467  1.0000
  H   H1182     1.0  0.49536  0.04048  0.40347  1.0000
  H   H1183     1.0  0.50867  0.00837  0.04445  1.0000
  C   C670      1.0  0.65500  0.02366  0.15546  1.0000
  H   H1184     1.0  0.67399  0.01908  0.45886  1.0000
  C   C671      1.0  0.70924  0.05051  0.07683  1.0000
  H   H1185     1.0  0.61375  0.01537  0.26930  1.0000
  H   H1186     1.0  0.70622  0.01852  0.09805  1.0000
  C   C672      1.0  0.66580  0.02394  0.39549  1.0000
  H   H1187     1.0  0.48878  0.43196  0.41565  1.0000
  H   H1188     1.0  0.65655  0.02120  0.37156  1.0000
  H   H1189     1.0  0.51096  0.46980  0.38387  1.0000
  H   H1190     1.0  0.49052  0.45558  0.27159  1.0000
  H   H1191     1.0  0.70720  0.04570  0.04991  1.0000
  C   C673      1.0  0.63902  0.02967  0.17759  1.0000
  H   H1192     1.0  0.49105  0.42710  0.47894  1.0000
  H   H1193     1.0  0.71916  0.14378  0.49420  1.0000
  H   H1194     1.0  0.71909  0.02776  0.37433  1.0000
  H   H1195     1.0  0.62682  0.01405  0.19246  1.0000
  H   H1196     1.0  0.71333  0.00952  0.47531  1.0000
  Fe  Fe76      1.0  0.57792  0.01380  0.10836  1.0000
  H   H1197     1.0  0.66354  0.02480  0.07874  1.0000
  H   H1198     1.0  0.52436  0.06056  0.38915  1.0000
  H   H1199     1.0  0.64462  0.02498  0.27233  1.0000
  H   H1200     1.0  0.53990  0.00617  0.43717  1.0000
  C   C674      1.0  0.69619  0.02865  0.09887  1.0000
  C   C675      1.0  0.66338  0.05085  0.00995  1.0000
  H   H1201     1.0  0.66640  0.03987  0.14104  1.0000
  C   C676      1.0  0.65764  0.00026  0.41330  1.0000
  H   H1202     1.0  0.70251  0.06335  0.08171  1.0000
  H   H1203     1.0  0.64768  0.99633  0.24816  1.0000
  H   H1204     1.0  0.69026  0.11989  0.48823  1.0000
  H   H1205     1.0  0.64964  0.04413  0.19503  1.0000
  C   C677      1.0  0.62789  0.01774  0.28660  1.0000
  H   H1206     1.0  0.51431  0.47342  0.01465  1.0000
  H   H1207     1.0  0.49540  0.43151  0.07275  1.0000
  C   C678      1.0  0.51054  0.04190  0.38840  1.0000
  C   C679      1.0  0.63996  0.03330  0.00971  1.0000
  H   H1208     1.0  0.61351  0.03053  0.32692  1.0000
  S   S150      1.0  0.53080  0.00783  0.21281  1.0000
  H   H1209     1.0  0.63334  0.05305  0.29873  1.0000
  C   C680      1.0  0.62995  0.03652  0.31204  1.0000
  H   H1210     1.0  0.69657  0.03480  0.12485  1.0000
  H   H1211     1.0  0.64466  0.04057  0.32913  1.0000
  C   C681      1.0  0.49842  0.49197  0.27955  1.0000
  H   H1212     1.0  0.48399  0.00773  0.31105  1.0000
  H   H1213     1.0  0.63156  0.01045  0.11517  1.0000
  C   C682      1.0  0.51971  0.02587  0.40304  1.0000
  H   H1214     1.0  0.68995  0.00781  0.43581  1.0000
  H   H1215     1.0  0.53606  0.02922  0.38950  1.0000
  C   C683      1.0  0.64070  0.00328  0.13113  1.0000
  H   H1216     1.0  0.50393  0.45740  0.44211  1.0000
  H   H1217     1.0  0.48739  0.99668  0.42001  1.0000
  H   H1218     1.0  0.67312  0.00513  0.06239  1.0000
  S   S151      1.0  0.57613  0.99862  0.15935  1.0000
  C   C684      1.0  0.49349  0.46494  0.39506  1.0000
  C   C685      1.0  0.49729  0.99778  0.02477  1.0000
  H   H1219     1.0  0.67965  0.99830  0.14761  1.0000
  H   H1220     1.0  0.49440  0.41617  0.01547  1.0000
  H   H1221     1.0  0.66568  0.01911  0.17237  1.0000
  C   C686      1.0  0.67201  0.00310  0.44504  1.0000
  H   H1222     1.0  0.63930  0.00958  0.48213  1.0000
  C   C687      1.0  0.48897  0.00823  0.00109  1.0000
  H   H1223     1.0  0.49316  0.48146  0.40307  1.0000
  H   H1224     1.0  0.52663  0.00672  0.34175  1.0000
  H   H1225     1.0  0.48780  0.01331  0.18390  1.0000
  C   C688      1.0  0.72705  0.00140  0.39477  1.0000
  C   C689      1.0  0.50012  0.47725  0.00903  1.0000
  C   C690      1.0  0.48889  0.47047  0.26180  1.0000
  C   C691      1.0  0.48491  0.99769  0.28978  1.0000
  H   H1226     1.0  0.63680  0.99757  0.32200  1.0000
  H   H1227     1.0  0.49254  0.99623  0.37689  1.0000
  C   C692      1.0  0.50585  0.99465  0.23972  1.0000
  H   H1228     1.0  0.56635  0.99658  0.47067  1.0000
  C   C693      1.0  0.63449  0.99409  0.49868  1.0000
  H   H1229     1.0  0.54539  0.99529  0.38521  1.0000
  N   N38       1.0  0.65421  0.99400  0.10991  1.0000
  C   C694      1.0  0.69947  0.99401  0.35011  1.0000
  Fe  Fe77      1.0  0.53962  0.99424  0.16411  1.0000
  C   C695      1.0  0.70428  0.99397  0.49179  1.0000
  H   H1230     1.0  0.48318  0.05895  0.33732  1.0000
  C   C696      1.0  0.62250  0.99409  0.30420  1.0000
  H   H1231     1.0  0.67974  0.00521  0.50997  1.0000
  H   H1232     1.0  0.72481  0.07004  0.79225  1.0000
  H   H1233     1.0  0.71699  0.01540  0.76463  1.0000
  C   C697      1.0  0.50759  0.02989  0.85989  1.0000
  S   S152      1.0  0.55507  0.01171  0.62015  1.0000
  Fe  Fe78      1.0  0.58926  0.01047  0.61346  1.0000
  S   S153      1.0  0.62632  0.03941  0.60350  1.0000
  H   H1234     1.0  0.50863  0.01743  0.90890  1.0000
  H   H1235     1.0  0.70149  0.13909  0.61903  1.0000
  H   H1236     1.0  0.53817  0.02341  0.94888  1.0000
  C   C698      1.0  0.49023  0.41867  0.54639  1.0000
  H   H1237     1.0  0.50143  0.02894  0.51569  1.0000
  H   H1238     1.0  0.51987  0.01024  0.55052  1.0000
  H   H1239     1.0  0.49193  0.05292  0.85150  1.0000
  C   C699      1.0  0.52096  0.02425  0.88727  1.0000
  H   H1240     1.0  0.67745  0.10921  0.66249  1.0000
  C   C700      1.0  0.66686  0.05855  0.50388  1.0000
  C   C701      1.0  0.49206  0.48214  0.77520  1.0000
  C   C702      1.0  0.63102  0.04887  0.53579  1.0000
  C   C703      1.0  0.64036  0.04373  0.56395  1.0000
  C   C704      1.0  0.66271  0.04525  0.56158  1.0000
  C   C705      1.0  0.67570  0.05213  0.53140  1.0000
  H   H1241     1.0  0.51586  0.49124  0.51648  1.0000
  H   H1242     1.0  0.61401  0.04818  0.53751  1.0000
  H   H1243     1.0  0.67007  0.04137  0.58330  1.0000
  H   H1244     1.0  0.69271  0.05292  0.52953  1.0000
  H   H1245     1.0  0.69289  0.08878  0.60008  1.0000
  C   C706      1.0  0.56269  0.00631  0.83860  1.0000
  H   H1246     1.0  0.71669  0.08493  0.56077  1.0000
  H   H1247     1.0  0.63376  0.02114  0.98894  1.0000
  H   H1248     1.0  0.71437  0.10560  0.51692  1.0000
  C   C707      1.0  0.55864  0.48308  0.79250  1.0000
  H   H1249     1.0  0.71760  0.01486  0.53710  1.0000
  H   H1250     1.0  0.65589  0.99518  0.81861  1.0000
  H   H1251     1.0  0.72569  0.07957  0.62388  1.0000
  H   H1252     1.0  0.68291  0.12046  0.58729  1.0000
  H   H1253     1.0  0.49038  0.04372  0.89434  1.0000
  C   C708      1.0  0.52114  0.03980  0.67181  1.0000
  H   H1254     1.0  0.71027  0.06913  0.85052  1.0000
  H   H1255     1.0  0.49106  0.01385  0.85437  1.0000
  H   H1256     1.0  0.71256  0.02021  0.89804  1.0000
  H   H1257     1.0  0.53876  0.01923  0.82592  1.0000
  H   H1258     1.0  0.70930  0.10379  0.63534  1.0000
  H   H1259     1.0  0.53548  0.04127  0.89590  1.0000
  C   C709      1.0  0.70758  0.11585  0.53176  1.0000
  H   H1260     1.0  0.51577  0.03490  0.69834  1.0000
  C   C710      1.0  0.67196  0.02854  0.79347  1.0000
  S   S154      1.0  0.68198  0.05247  0.97584  1.0000
  C   C711      1.0  0.54781  0.01869  0.84904  1.0000
  N   N39       1.0  0.53050  0.00747  0.87760  1.0000
  H   H1261     1.0  0.48540  0.39320  0.97076  1.0000
  H   H1262     1.0  0.65893  0.09036  0.62988  1.0000
  S   S155      1.0  0.54103  0.00376  0.71750  1.0000
  C   C712      1.0  0.49014  0.00006  0.65044  1.0000
  C   C713      1.0  0.49474  0.00997  0.51517  1.0000
  H   H1263     1.0  0.67143  0.99577  0.78065  1.0000
  H   H1264     1.0  0.53505  0.03494  0.66507  1.0000
  Fe  Fe79      1.0  0.72175  0.07153  0.97062  1.0000
  H   H1265     1.0  0.56978  0.01938  0.78718  1.0000
  H   H1266     1.0  0.66033  0.11874  0.63775  1.0000
  C   C714      1.0  0.70524  0.10671  0.60937  1.0000
  H   H1267     1.0  0.56013  0.03742  0.85516  1.0000
  H   H1268     1.0  0.52146  0.02237  0.76716  1.0000
  H   H1269     1.0  0.50312  0.99644  0.63628  1.0000
  C   C715      1.0  0.50157  0.04927  0.87143  1.0000
  H   H1270     1.0  0.64466  0.99996  0.52196  1.0000
  C   C716      1.0  0.64427  0.05637  0.50594  1.0000
  H   H1271     1.0  0.52842  0.05924  0.66926  1.0000
  H   H1272     1.0  0.51792  0.03632  0.83642  1.0000
  H   H1273     1.0  0.59110  0.03831  0.81707  1.0000
  C   C717      1.0  0.54335  0.00401  0.90669  1.0000
  H   H1274     1.0  0.67677  0.03599  0.76780  1.0000
  H   H1275     1.0  0.48734  0.03341  0.65626  1.0000
  H   H1276     1.0  0.56008  0.46998  0.77556  1.0000
  H   H1277     1.0  0.66083  0.03539  0.80585  1.0000
  H   H1278     1.0  0.69080  0.10306  0.54345  1.0000
  H   H1279     1.0  0.53993  0.47774  0.79760  1.0000
  C   C718      1.0  0.50826  0.00463  0.76151  1.0000
  H   H1280     1.0  0.63992  0.00076  0.74782  1.0000
  H   H1281     1.0  0.68814  0.03443  0.80810  1.0000
  C   C719      1.0  0.69079  0.12046  0.61168  1.0000
  H   H1282     1.0  0.71504  0.04824  0.58097  1.0000
  C   C720      1.0  0.67070  0.10894  0.63706  1.0000
  C   C721      1.0  0.57957  0.01968  0.80994  1.0000
  C   C722      1.0  0.53428  0.00498  0.94267  1.0000
  H   H1283     1.0  0.48551  0.40586  0.56738  1.0000
  H   H1284     1.0  0.54013  0.99888  0.99422  1.0000
  H   H1285     1.0  0.73179  0.03427  0.81934  1.0000
  H   H1286     1.0  0.70446  0.08852  0.82419  1.0000
  C   C723      1.0  0.72996  0.01205  0.77830  1.0000
  H   H1287     1.0  0.51768  0.06586  0.87666  1.0000
  H   H1288     1.0  0.50621  0.03366  0.62295  1.0000
  H   H1289     1.0  0.49879  0.43014  0.93713  1.0000
  H   H1290     1.0  0.56185  0.01814  0.90666  1.0000
  H   H1291     1.0  0.50141  0.48152  0.79701  1.0000
  C   C724      1.0  0.71401  0.00544  0.88712  1.0000
  H   H1292     1.0  0.62537  0.99933  0.78607  1.0000
  C   C725      1.0  0.65932  0.00159  0.79238  1.0000
  C   C726      1.0  0.48622  0.99542  0.77765  1.0000
  C   C727      1.0  0.50522  0.99942  0.53496  1.0000
  H   H1293     1.0  0.59071  0.01119  0.80388  1.0000
  H   H1294     1.0  0.50631  0.42018  0.53384  1.0000
  H   H1295     1.0  0.56540  0.00789  0.96728  1.0000
  H   H1296     1.0  0.57325  0.00548  0.85961  1.0000
  H   H1297     1.0  0.56701  0.48310  0.81654  1.0000
  C   C728      1.0  0.70278  0.13128  0.50729  1.0000
  C   C729      1.0  0.50105  0.48943  0.97936  1.0000
  N   N40       1.0  0.72733  0.11742  0.58810  1.0000
  C   C730      1.0  0.72567  0.13093  0.55830  1.0000
  C   C731      1.0  0.71779  0.99945  0.52438  1.0000
  H   H1298     1.0  0.49375  0.43612  0.55691  1.0000
  H   H1299     1.0  0.72166  0.14532  0.56613  1.0000
  H   H1300     1.0  0.69501  0.14129  0.52059  1.0000
  C   C732      1.0  0.71848  0.08590  0.83601  1.0000
  C   C733      1.0  0.50024  0.02740  0.64895  1.0000
  H   H1301     1.0  0.49090  0.99485  0.67674  1.0000
  H   H1302     1.0  0.72802  0.10082  0.85343  1.0000
  H   H1303     1.0  0.49920  0.40637  0.91321  1.0000
  H   H1304     1.0  0.72037  0.99565  0.79328  1.0000
  H   H1305     1.0  0.60633  0.99881  0.52166  1.0000
  C   C734      1.0  0.48765  0.41250  0.92606  1.0000
  C   C735      1.0  0.73191  0.09773  0.57489  1.0000
  S   S156      1.0  0.58608  0.99358  0.66359  1.0000
  C   C736      1.0  0.54614  0.99695  0.96873  1.0000
  H   H1306     1.0  0.51527  0.99383  0.94557  1.0000
  Fe  Fe80      1.0  0.54060  0.58855  0.38967  1.0000
  S   S157      1.0  0.56344  0.57750  0.41744  1.0000
  S   S158      1.0  0.53327  0.61856  0.40580  1.0000
  Fe  Fe81      1.0  0.52906  0.54985  0.33636  1.0000
  S   S159      1.0  0.55184  0.53627  0.36053  1.0000
  S   S160      1.0  0.50826  0.53893  0.28806  1.0000
  Fe  Fe82      1.0  0.53555  0.54031  0.40916  1.0000
  H   H1307     1.0  0.67456  0.73998  0.25845  1.0000
  Fe  Fe83      1.0  0.57776  0.57476  0.36690  1.0000
  S   S161      1.0  0.61733  0.59549  0.36367  1.0000
  S   S162      1.0  0.51130  0.55145  0.38454  1.0000
  S   S163      1.0  0.55626  0.58810  0.33947  1.0000
  Fe  Fe84      1.0  0.71797  0.62189  0.23617  1.0000
  H   H1308     1.0  0.58683  0.59047  0.27251  1.0000
  S   S164      1.0  0.68365  0.59003  0.24905  1.0000
  C   C737      1.0  0.49080  0.97367  0.02300  1.0000
  C   C738      1.0  0.56362  0.74188  0.48782  1.0000
  Fe  Fe85      1.0  0.66005  0.91212  0.30958  1.0000
  S   S165      1.0  0.62487  0.89056  0.33329  1.0000
  S   S166      1.0  0.67512  0.95195  0.31751  1.0000
  Fe  Fe86      1.0  0.65318  0.87029  0.26316  1.0000
  S   S167      1.0  0.61736  0.84681  0.28413  1.0000
  S   S168      1.0  0.66900  0.86077  0.21767  1.0000
  Fe  Fe87      1.0  0.61207  0.87922  0.28144  1.0000
  S   S169      1.0  0.57950  0.88135  0.26589  1.0000
  Fe  Fe88      1.0  0.63379  0.86045  0.33424  1.0000
  S   S170      1.0  0.62103  0.83679  0.38072  1.0000
  S   S171      1.0  0.64669  0.90169  0.25739  1.0000
  S   S172      1.0  0.67029  0.88276  0.31352  1.0000
  Fe  Fe89      1.0  0.63323  0.75278  0.08778  1.0000
  S   S173      1.0  0.66979  0.76675  0.06652  1.0000
  S   S174      1.0  0.62140  0.76470  0.13522  1.0000
  Fe  Fe90      1.0  0.61251  0.71337  0.03474  1.0000
  H   H1309     1.0  0.55812  0.52498  0.00649  1.0000
  H   H1310     1.0  0.65465  0.91658  0.42988  1.0000
  Fe  Fe91      1.0  0.66131  0.72839  0.06167  1.0000
  S   S175      1.0  0.68339  0.70951  0.06653  1.0000
  C   C739      1.0  0.66840  0.96916  0.22850  1.0000
  S   S176      1.0  0.66937  0.78813  0.46690  1.0000
  S   S177      1.0  0.62607  0.71464  0.08645  1.0000
  S   S178      1.0  0.61633  0.75028  0.03796  1.0000
  Fe  Fe92      1.0  0.56046  0.96340  0.13425  1.0000
  S   S179      1.0  0.58012  0.94192  0.13999  1.0000
  H   H1311     1.0  0.66371  0.95184  0.10999  1.0000
  S   S180      1.0  0.50030  0.95940  0.05249  1.0000
  H   H1312     1.0  0.50409  0.97724  0.33661  1.0000
  S   S181      1.0  0.52351  0.95748  0.14241  1.0000
  H   H1313     1.0  0.55075  0.72074  0.37700  1.0000
  H   H1314     1.0  0.66867  0.95476  0.21319  1.0000
  H   H1315     1.0  0.60550  0.92179  0.35702  1.0000
  C   C740      1.0  0.58004  0.89893  0.23157  1.0000
  C   C741      1.0  0.59943  0.90928  0.21008  1.0000
  C   C742      1.0  0.59906  0.92220  0.18199  1.0000
  C   C743      1.0  0.57967  0.92582  0.17594  1.0000
  C   C744      1.0  0.56038  0.91588  0.19775  1.0000
  C   C745      1.0  0.56051  0.90233  0.22534  1.0000
  H   H1316     1.0  0.61472  0.90731  0.21510  1.0000
  H   H1317     1.0  0.61400  0.92973  0.16516  1.0000
  H   H1318     1.0  0.54514  0.91816  0.19293  1.0000
  H   H1319     1.0  0.54537  0.89433  0.24180  1.0000
  C   C746      1.0  0.65455  0.83463  0.19376  1.0000
  C   C747      1.0  0.63415  0.81533  0.20539  1.0000
  C   C748      1.0  0.62399  0.79428  0.18671  1.0000
  C   C749      1.0  0.63397  0.79231  0.15611  1.0000
  C   C750      1.0  0.65393  0.81188  0.14389  1.0000
  C   C751      1.0  0.66430  0.83283  0.16283  1.0000
  H   H1320     1.0  0.62650  0.81640  0.22919  1.0000
  H   H1321     1.0  0.60850  0.77927  0.19633  1.0000
  H   H1322     1.0  0.66169  0.81065  0.12026  1.0000
  H   H1323     1.0  0.68013  0.84766  0.15365  1.0000
  C   C752      1.0  0.63519  0.82396  0.40458  1.0000
  C   C753      1.0  0.62472  0.81245  0.43483  1.0000
  C   C754      1.0  0.63488  0.80137  0.45418  1.0000
  C   C755      1.0  0.65575  0.80174  0.44350  1.0000
  C   C756      1.0  0.66618  0.81319  0.41320  1.0000
  C   C757      1.0  0.65598  0.82424  0.39381  1.0000
  H   H1324     1.0  0.60863  0.81214  0.44336  1.0000
  H   H1325     1.0  0.62669  0.79273  0.47746  1.0000
  H   H1326     1.0  0.68235  0.81364  0.40478  1.0000
  H   H1327     1.0  0.66423  0.83299  0.37061  1.0000
  C   C758      1.0  0.69498  0.97032  0.34792  1.0000
  H   H1328     1.0  0.66352  0.82216  0.26733  1.0000
  C   C759      1.0  0.70647  0.96215  0.36949  1.0000
  H   H1329     1.0  0.65226  0.87114  0.14175  1.0000
  H   H1330     1.0  0.70328  0.94399  0.36796  1.0000
  C   C760      1.0  0.71547  0.70225  0.16400  1.0000
  H   H1331     1.0  0.65990  0.93397  0.39216  1.0000
  C   C761      1.0  0.69771  0.72171  0.13149  1.0000
  C   C762      1.0  0.69472  0.70643  0.10481  1.0000
  C   C763      1.0  0.70167  0.68875  0.10805  1.0000
  C   C764      1.0  0.59943  0.80564  0.07890  1.0000
  C   C765      1.0  0.52246  0.98786  0.34388  1.0000
  H   H1332     1.0  0.69266  0.73552  0.12894  1.0000
  H   H1333     1.0  0.58035  0.90880  0.33022  1.0000
  H   H1334     1.0  0.51431  0.60281  0.47393  1.0000
  C   C766      1.0  0.54715  0.63969  0.43755  1.0000
  C   C767      1.0  0.53486  0.65097  0.45096  1.0000
  C   C768      1.0  0.57656  0.96416  0.26749  1.0000
  H   H1335     1.0  0.62591  0.96826  0.46003  1.0000
  H   H1336     1.0  0.60665  0.96060  0.35275  1.0000
  C   C769      1.0  0.56941  0.64554  0.44976  1.0000
  H   H1337     1.0  0.51770  0.64660  0.44178  1.0000
  H   H1338     1.0  0.54459  0.59455  0.01463  1.0000
  H   H1339     1.0  0.65994  0.83848  0.00724  1.0000
  H   H1340     1.0  0.57908  0.63695  0.43948  1.0000
  C   C770      1.0  0.63500  0.59374  0.33088  1.0000
  C   C771      1.0  0.62702  0.57464  0.30884  1.0000
  C   C772      1.0  0.64212  0.57359  0.28386  1.0000
  C   C773      1.0  0.66513  0.59176  0.28059  1.0000
  C   C774      1.0  0.67299  0.61090  0.30248  1.0000
  C   C775      1.0  0.65804  0.61181  0.32764  1.0000
  H   H1341     1.0  0.60936  0.56049  0.31143  1.0000
  H   H1342     1.0  0.63594  0.55864  0.26708  1.0000
  H   H1343     1.0  0.69061  0.62493  0.30014  1.0000
  H   H1344     1.0  0.66430  0.62664  0.34464  1.0000
  H   H1345     1.0  0.63315  0.99321  0.04712  1.0000
  H   H1346     1.0  0.53410  0.67545  0.48734  1.0000
  S   S182      1.0  0.56370  0.97877  0.08278  1.0000
  C   C776      1.0  0.64240  0.98054  0.26433  1.0000
  N   N41       1.0  0.52086  0.56136  0.03880  1.0000
  C   C777      1.0  0.57691  0.70977  0.39278  1.0000
  C   C778      1.0  0.55159  0.70580  0.38969  1.0000
  C   C779      1.0  0.53691  0.68348  0.36959  1.0000
  H   H1347     1.0  0.71157  0.63016  0.07669  1.0000
  H   H1348     1.0  0.58308  0.70682  0.36791  1.0000
  H   H1349     1.0  0.57552  0.69490  0.40865  1.0000
  H   H1350     1.0  0.59869  0.95398  0.23941  1.0000
  H   H1351     1.0  0.54336  0.70318  0.41495  1.0000
  H   H1352     1.0  0.53715  0.66782  0.38114  1.0000
  H   H1353     1.0  0.51854  0.68033  0.36908  1.0000
  H   H1354     1.0  0.54363  0.68542  0.34344  1.0000
  H   H1355     1.0  0.62601  0.70577  0.21222  1.0000
  C   C780      1.0  0.57172  0.62382  0.06041  1.0000
  H   H1356     1.0  0.54833  0.59493  0.09120  1.0000
  H   H1357     1.0  0.72500  0.70061  0.02521  1.0000
  H   H1358     1.0  0.56154  0.63382  0.06171  1.0000
  H   H1359     1.0  0.57033  0.98772  0.23474  1.0000
  N   N42       1.0  0.59980  0.84791  0.15077  1.0000
  C   C781      1.0  0.62063  0.86726  0.16792  1.0000
  C   C782      1.0  0.58413  0.85733  0.13709  1.0000
  C   C783      1.0  0.59485  0.87684  0.11008  1.0000
  C   C784      1.0  0.57875  0.83786  0.20904  1.0000
  C   C785      1.0  0.64292  0.88177  0.14617  1.0000
  C   C786      1.0  0.57653  0.88326  0.09665  1.0000
  H   H1360     1.0  0.61808  0.84917  0.10406  1.0000
  H   H1361     1.0  0.61547  0.87971  0.18030  1.0000
  H   H1362     1.0  0.56783  0.84269  0.12724  1.0000
  H   H1363     1.0  0.57823  0.86528  0.15752  1.0000
  H   H1364     1.0  0.60207  0.87119  0.08859  1.0000
  H   H1365     1.0  0.60869  0.89320  0.12117  1.0000
  H   H1366     1.0  0.66457  0.60537  0.40039  1.0000
  H   H1367     1.0  0.56686  0.84547  0.20375  1.0000
  H   H1368     1.0  0.63906  0.88664  0.12146  1.0000
  H   H1369     1.0  0.65131  0.91620  0.16767  1.0000
  H   H1370     1.0  0.66500  0.90069  0.18795  1.0000
  H   H1371     1.0  0.56892  0.88939  0.11724  1.0000
  H   H1372     1.0  0.58475  0.89781  0.07808  1.0000
  H   H1373     1.0  0.56233  0.86781  0.08423  1.0000
  H   H1374     1.0  0.60806  0.81936  0.05927  1.0000
  H   H1375     1.0  0.53449  0.98824  0.29279  1.0000
  H   H1376     1.0  0.56253  0.57476  0.00015  1.0000
  H   H1377     1.0  0.50011  0.56504  0.07928  1.0000
  C   C787      1.0  0.59699  0.94730  0.33327  1.0000
  H   H1378     1.0  0.64330  0.67304  0.10729  1.0000
  H   H1379     1.0  0.60496  0.74611  0.45766  1.0000
  H   H1380     1.0  0.69872  0.58319  0.38352  1.0000
  H   H1381     1.0  0.61572  0.71454  0.45177  1.0000
  C   C788      1.0  0.53482  0.54816  0.03311  1.0000
  H   H1382     1.0  0.62176  0.62853  0.25419  1.0000
  H   H1383     1.0  0.57819  0.92025  0.37066  1.0000
  H   H1384     1.0  0.70455  0.60275  0.43763  1.0000
  C   C789      1.0  0.58871  0.73505  0.44362  1.0000
  C   C790      1.0  0.64743  0.92532  0.41316  1.0000
  H   H1385     1.0  0.62823  0.93326  0.45058  1.0000
  H   H1386     1.0  0.57715  0.80928  0.24043  1.0000
  C   C791      1.0  0.56809  0.54452  0.00431  1.0000
  H   H1387     1.0  0.64565  0.96587  0.07372  1.0000
  N   N43       1.0  0.73136  0.61476  0.37445  1.0000
  C   C792      1.0  0.53607  0.58783  0.03932  1.0000
  C   C793      1.0  0.63083  0.71287  0.18639  1.0000
  H   H1388     1.0  0.55675  0.73897  0.43550  1.0000
  H   H1389     1.0  0.61065  0.98567  0.07878  1.0000
  H   H1390     1.0  0.70996  0.56956  0.34059  1.0000
  H   H1391     1.0  0.66768  0.72743  0.19374  1.0000
  H   H1392     1.0  0.60949  0.77066  0.39847  1.0000
  C   C794      1.0  0.50888  0.55408  0.07269  1.0000
  H   H1393     1.0  0.56678  0.94529  0.27509  1.0000
  H   H1394     1.0  0.61464  0.79248  0.34330  1.0000
  H   H1395     1.0  0.73034  0.68565  0.34219  1.0000
  H   H1396     1.0  0.71002  0.64581  0.36644  1.0000
  N   N44       1.0  0.68050  0.77544  0.21023  1.0000
  C   C795      1.0  0.65668  0.75436  0.20733  1.0000
  C   C796      1.0  0.67887  0.79476  0.23040  1.0000
  C   C797      1.0  0.72431  0.62422  0.08478  1.0000
  H   H1397     1.0  0.68044  0.97259  0.24968  1.0000
  C   C798      1.0  0.54979  0.98258  0.48147  1.0000
  H   H1398     1.0  0.53916  0.96456  0.43440  1.0000
  C   C799      1.0  0.66084  0.78711  0.25985  1.0000
  C   C800      1.0  0.66472  0.80811  0.28210  1.0000
  C   C801      1.0  0.66450  0.96138  0.45109  1.0000
  H   H1399     1.0  0.64426  0.76011  0.19692  1.0000
  H   H1400     1.0  0.64920  0.74678  0.23218  1.0000
  H   H1401     1.0  0.70742  0.59122  0.05680  1.0000
  H   H1402     1.0  0.67376  0.80555  0.21402  1.0000
  H   H1403     1.0  0.67473  0.78594  0.16131  1.0000
  H   H1404     1.0  0.60493  0.77564  0.30536  1.0000
  H   H1405     1.0  0.61240  0.80076  0.08944  1.0000
  C   C802      1.0  0.53158  0.97121  0.45427  1.0000
  H   H1406     1.0  0.58116  0.71739  0.45586  1.0000
  H   H1407     1.0  0.66010  0.98816  0.39554  1.0000
  H   H1408     1.0  0.64291  0.77976  0.24983  1.0000
  H   H1409     1.0  0.71141  0.73201  0.18104  1.0000
  C   C803      1.0  0.67172  0.59839  0.41998  1.0000
  H   H1410     1.0  0.70537  0.62875  0.41936  1.0000
  C   C804      1.0  0.49667  0.51143  0.26689  1.0000
  H   H1411     1.0  0.60340  0.59014  0.19990  1.0000
  H   H1412     1.0  0.63169  0.75175  0.41405  1.0000
  H   H1413     1.0  0.64775  0.70524  0.43827  1.0000
  C   C805      1.0  0.58812  0.58165  0.24911  1.0000
  H   H1414     1.0  0.49530  0.53591  0.00564  1.0000
  H   H1415     1.0  0.65632  0.98542  0.28335  1.0000
  H   H1416     1.0  0.49235  0.52633  0.13077  1.0000
  S   S183      1.0  0.52657  0.51467  0.45302  1.0000
  H   H1417     1.0  0.58843  0.73832  0.33703  1.0000
  H   H1418     1.0  0.63256  0.95860  0.21919  1.0000
  H   H1419     1.0  0.50171  0.56343  0.44931  1.0000
  H   H1420     1.0  0.69203  0.76796  0.27899  1.0000
  H   H1421     1.0  0.72403  0.61123  0.32145  1.0000
  H   H1422     1.0  0.60691  0.98970  0.32024  1.0000
  H   H1423     1.0  0.66683  0.60281  0.44479  1.0000
  H   H1424     1.0  0.56312  0.95925  0.21663  1.0000
  H   H1425     1.0  0.65929  0.73934  0.15864  1.0000
  C   C806      1.0  0.49038  0.52769  0.07639  1.0000
  C   C807      1.0  0.60547  0.95767  0.04538  1.0000
  H   H1426     1.0  0.57572  0.81868  0.09496  1.0000
  H   H1427     1.0  0.59139  0.60876  0.21492  1.0000
  H   H1428     1.0  0.70355  0.81699  0.12230  1.0000
  H   H1429     1.0  0.65121  0.80235  0.30231  1.0000
  H   H1430     1.0  0.67468  0.98536  0.21295  1.0000
  C   C808      1.0  0.56284  0.96851  0.24004  1.0000
  H   H1431     1.0  0.68211  0.81559  0.29388  1.0000
  H   H1432     1.0  0.58186  0.76552  0.44736  1.0000
  H   H1433     1.0  0.61789  0.71833  0.17736  1.0000
  H   H1434     1.0  0.62029  0.83085  0.13525  1.0000
  H   H1435     1.0  0.71697  0.67277  0.14017  1.0000
  H   H1436     1.0  0.62458  0.95912  0.10654  1.0000
  H   H1437     1.0  0.59666  0.57051  0.25456  1.0000
  C   C809      1.0  0.49042  0.95769  0.41229  1.0000
  H   H1438     1.0  0.69916  0.67678  0.08751  1.0000
  C   C810      1.0  0.70827  0.71971  0.16088  1.0000
  N   N45       1.0  0.64342  0.63513  0.20929  1.0000
  C   C811      1.0  0.65874  0.65814  0.22667  1.0000
  C   C812      1.0  0.65893  0.62516  0.19576  1.0000
  C   C813      1.0  0.64706  0.60269  0.17401  1.0000
  C   C814      1.0  0.64657  0.65817  0.15442  1.0000
  C   C815      1.0  0.67096  0.65611  0.25868  1.0000
  C   C816      1.0  0.66506  0.59665  0.15743  1.0000
  C   C817      1.0  0.63193  0.65933  0.12556  1.0000
  C   C818      1.0  0.68458  0.68010  0.27547  1.0000
  H   H1439     1.0  0.64835  0.66740  0.23374  1.0000
  H   H1440     1.0  0.67297  0.67035  0.20957  1.0000
  H   H1441     1.0  0.67403  0.63887  0.18148  1.0000
  H   H1442     1.0  0.66703  0.62031  0.21661  1.0000
  H   H1443     1.0  0.63678  0.60478  0.15367  1.0000
  H   H1444     1.0  0.63558  0.58740  0.19000  1.0000
  H   H1445     1.0  0.65631  0.67627  0.16475  1.0000
  H   H1446     1.0  0.65925  0.65277  0.14366  1.0000
  H   H1447     1.0  0.68348  0.64933  0.25241  1.0000
  H   H1448     1.0  0.65820  0.64419  0.27746  1.0000
  H   H1449     1.0  0.67534  0.59326  0.17664  1.0000
  H   H1450     1.0  0.65604  0.58041  0.14218  1.0000
  H   H1451     1.0  0.67707  0.61127  0.14078  1.0000
  H   H1452     1.0  0.62351  0.64212  0.11234  1.0000
  H   H1453     1.0  0.67272  0.68744  0.28327  1.0000
  H   H1454     1.0  0.69325  0.67802  0.29802  1.0000
  H   H1455     1.0  0.69825  0.69267  0.25822  1.0000
  C   C819      1.0  0.61275  0.95153  0.30172  1.0000
  H   H1456     1.0  0.60418  0.93561  0.28551  1.0000
  S   S184      1.0  0.72326  0.63701  0.18438  1.0000
  H   H1457     1.0  0.57967  0.55160  0.02615  1.0000
  N   N46       1.0  0.61915  0.97379  0.28152  1.0000
  H   H1458     1.0  0.54438  0.96197  0.24823  1.0000
  C   C820      1.0  0.68883  0.78467  0.17518  1.0000
  H   H1459     1.0  0.57985  0.79966  0.12445  1.0000
  H   H1460     1.0  0.61557  0.95088  0.03019  1.0000
  Fe  Fe93      1.0  0.65234  0.76204  0.01647  1.0000
  H   H1461     1.0  0.55336  0.96895  0.49336  1.0000
  C   C821      1.0  0.55152  0.55542  0.00230  1.0000
  H   H1462     1.0  0.63768  0.94446  0.25473  1.0000
  C   C822      1.0  0.64256  0.94334  0.43231  1.0000
  C   C823      1.0  0.53770  0.98344  0.31814  1.0000
  C   C824      1.0  0.72782  0.65175  0.35586  1.0000
  C   C825      1.0  0.50245  0.58732  0.48935  1.0000
  H   H1463     1.0  0.58380  0.77512  0.33572  1.0000
  Fe  Fe94      1.0  0.52820  0.97616  0.09255  1.0000
  C   C826      1.0  0.63671  0.97360  0.08965  1.0000
  H   H1464     1.0  0.62877  0.95123  0.31105  1.0000
  H   H1465     1.0  0.57951  0.75541  0.38953  1.0000
  C   C827      1.0  0.65534  0.73377  0.18522  1.0000
  C   C828      1.0  0.57227  0.74611  0.45149  1.0000
  H   H1466     1.0  0.65802  0.73662  0.43421  1.0000
  C   C829      1.0  0.63089  0.64062  0.18186  1.0000
  C   C830      1.0  0.58985  0.92303  0.34862  1.0000
  C   C831      1.0  0.60189  0.59984  0.22200  1.0000
  H   H1467     1.0  0.54509  0.54927  0.05570  1.0000
  H   H1468     1.0  0.66151  0.77342  0.27586  1.0000
  H   H1469     1.0  0.61826  0.66393  0.13472  1.0000
  H   H1470     1.0  0.59499  0.96246  0.02825  1.0000
  H   H1471     1.0  0.63387  0.60891  0.24883  1.0000
  H   H1472     1.0  0.61975  0.64800  0.19298  1.0000
  H   H1473     1.0  0.61858  0.62437  0.16879  1.0000
  H   H1474     1.0  0.52720  0.96478  0.37919  1.0000
  H   H1475     1.0  0.58549  0.78966  0.06708  1.0000
  H   H1476     1.0  0.56916  0.81567  0.16575  1.0000
  S   S185      1.0  0.57949  0.68142  0.01735  1.0000
  H   H1477     1.0  0.61913  0.75619  0.34500  1.0000
  C   C832      1.0  0.60115  0.77572  0.33254  1.0000
  H   H1478     1.0  0.60787  0.98445  0.23699  1.0000
  H   H1479     1.0  0.52182  0.55736  0.09259  1.0000
  C   C833      1.0  0.62086  0.71483  0.42515  1.0000
  C   C834      1.0  0.67733  0.97025  0.11473  1.0000
  H   H1480     1.0  0.69282  0.77206  0.16058  1.0000
  H   H1481     1.0  0.59560  0.81958  0.18401  1.0000
  H   H1482     1.0  0.57017  0.56992  0.24045  1.0000
  C   C835      1.0  0.65965  0.90462  0.16354  1.0000
  H   H1483     1.0  0.62298  0.73234  0.37905  1.0000
  H   H1484     1.0  0.52505  0.59679  0.04387  1.0000
  C   C836      1.0  0.60796  0.83646  0.12411  1.0000
  C   C837      1.0  0.58579  0.82918  0.17649  1.0000
  H   H1485     1.0  0.59420  0.85144  0.22195  1.0000
  H   H1486     1.0  0.65158  0.71826  0.39730  1.0000
  H   H1487     1.0  0.56139  0.82418  0.25676  1.0000
  H   H1488     1.0  0.54954  0.80378  0.22255  1.0000
  H   H1489     1.0  0.70233  0.75824  0.20686  1.0000
  C   C838      1.0  0.64612  0.71907  0.42355  1.0000
  H   H1490     1.0  0.67967  0.96790  0.43326  1.0000
  H   H1491     1.0  0.59326  0.94357  0.06256  1.0000
  H   H1492     1.0  0.69565  0.60563  0.36231  1.0000
  C   C839      1.0  0.55576  0.59737  0.06545  1.0000
  C   C840      1.0  0.58881  0.81450  0.10652  1.0000
  C   C841      1.0  0.60148  0.75450  0.34952  1.0000
  C   C842      1.0  0.56593  0.81743  0.23358  1.0000
  H   H1493     1.0  0.58090  0.62719  0.03575  1.0000
  H   H1494     1.0  0.63025  0.69866  0.16982  1.0000
  C   C843      1.0  0.61812  0.73415  0.40525  1.0000
  H   H1495     1.0  0.70335  0.95845  0.12268  1.0000
  C   C844      1.0  0.59589  0.75398  0.38751  1.0000
  H   H1496     1.0  0.72901  0.55730  0.29656  1.0000
  N   N47       1.0  0.59433  0.73312  0.40712  1.0000
  H   H1497     1.0  0.56679  0.58834  0.06338  1.0000
  H   H1498     1.0  0.60995  0.69706  0.41450  1.0000
  H   H1499     1.0  0.62661  0.85979  0.18852  1.0000
  H   H1500     1.0  0.67558  0.91420  0.14776  1.0000
  N   N48       1.0  0.66313  0.98199  0.46810  1.0000
  C   C845      1.0  0.62604  0.61845  0.23483  1.0000
  H   H1501     1.0  0.58089  0.94843  0.32757  1.0000
  H   H1502     1.0  0.63622  0.95202  0.41428  1.0000
  H   H1503     1.0  0.51633  0.95595  0.46591  1.0000
  H   H1504     1.0  0.52300  0.52895  0.02998  1.0000
  C   C846      1.0  0.69827  0.60940  0.41656  1.0000
  H   H1505     1.0  0.65326  0.97200  0.15141  1.0000
  C   C847      1.0  0.64356  0.96148  0.24137  1.0000
  C   C848      1.0  0.69815  0.76904  0.22487  1.0000
  C   C849      1.0  0.69180  0.75589  0.25883  1.0000
  H   H1506     1.0  0.72833  0.62882  0.11148  1.0000
  H   H1507     1.0  0.72188  0.80257  0.12305  1.0000
  H   H1508     1.0  0.66784  0.95048  0.46981  1.0000
  C   C850      1.0  0.57919  0.66278  0.47521  1.0000
  H   H1509     1.0  0.58062  0.58751  0.49148  1.0000
  C   C851      1.0  0.50209  0.55474  0.01282  1.0000
  H   H1510     1.0  0.66358  0.57886  0.41774  1.0000
  H   H1511     1.0  0.50728  0.49355  0.30284  1.0000
  H   H1512     1.0  0.52487  0.56064  0.48518  1.0000
  C   C852      1.0  0.70556  0.60267  0.38263  1.0000
  C   C853      1.0  0.71177  0.68646  0.13775  1.0000
  S   S186      1.0  0.64726  0.72504  0.00999  1.0000
  C   C854      1.0  0.71096  0.80904  0.17235  1.0000
  H   H1513     1.0  0.63095  0.91149  0.40265  1.0000
  C   C855      1.0  0.50177  0.50540  0.47971  1.0000
  H   H1514     1.0  0.72215  0.57977  0.28156  1.0000
  C   C856      1.0  0.60130  0.96944  0.25499  1.0000
  H   H1515     1.0  0.53341  0.96448  0.31791  1.0000
  C   C857      1.0  0.54420  0.66741  0.47676  1.0000
  H   H1516     1.0  0.58505  0.63054  0.08021  1.0000
  H   H1517     1.0  0.49844  0.51586  0.07268  1.0000
  H   H1518     1.0  0.57689  0.97528  0.28890  1.0000
  H   H1519     1.0  0.72494  0.59070  0.09138  1.0000
  H   H1520     1.0  0.69631  0.80734  0.24016  1.0000
  H   H1521     1.0  0.48929  0.96139  0.21402  1.0000
  C   C858      1.0  0.66605  0.98419  0.13257  1.0000
  C   C859      1.0  0.71275  0.59728  0.08279  1.0000
  H   H1522     1.0  0.49668  0.94455  0.41754  1.0000
  H   H1523     1.0  0.71064  0.98696  0.14031  1.0000
  H   H1524     1.0  0.72600  0.80870  0.18469  1.0000
  H   H1525     1.0  0.48676  0.55618  0.02348  1.0000
  H   H1526     1.0  0.70491  0.73824  0.29227  1.0000
  H   H1527     1.0  0.54477  0.59129  0.48238  1.0000
  C   C860      1.0  0.72246  0.97766  0.39274  1.0000
  S   S187      1.0  0.72940  0.70115  0.20088  1.0000
  H   H1528     1.0  0.68533  0.97833  0.09027  1.0000
  N   N49       1.0  0.51069  0.98207  0.40749  1.0000
  C   C861      1.0  0.48815  0.97161  0.23496  1.0000
  C   C862      1.0  0.69613  0.96898  0.13594  1.0000
  H   H1529     1.0  0.62673  0.98856  0.14584  1.0000
  S   S188      1.0  0.73189  0.65702  0.26116  1.0000
  H   H1530     1.0  0.69698  0.58957  0.09930  1.0000
  H   H1531     1.0  0.68870  0.96039  0.16035  1.0000
  H   H1532     1.0  0.63883  0.99339  0.41908  1.0000
  C   C863      1.0  0.62179  0.97946  0.06523  1.0000
  C   C864      1.0  0.63857  0.97475  0.48064  1.0000
  H   H1533     1.0  0.66870  0.86578  0.02942  1.0000
  C   C865      1.0  0.72869  0.58123  0.33499  1.0000
  H   H1534     1.0  0.59768  0.97929  0.48621  1.0000
  H   H1535     1.0  0.70546  0.97886  0.47984  1.0000
  C   C866      1.0  0.56638  0.67356  0.48897  1.0000
  C   C867      1.0  0.67864  0.98888  0.49830  1.0000
  H   H1536     1.0  0.56230  0.55607  0.48615  1.0000
  H   H1537     1.0  0.72626  0.64627  0.32946  1.0000
  C   C868      1.0  0.70974  0.74766  0.26786  1.0000
  H   H1538     1.0  0.72847  0.66909  0.05580  1.0000
  H   H1539     1.0  0.59630  0.66727  0.48471  1.0000
  C   C869      1.0  0.52704  0.98213  0.37992  1.0000
  H   H1540     1.0  0.70796  0.82325  0.18387  1.0000
  H   H1541     1.0  0.71503  0.78517  0.22860  1.0000
  C   C870      1.0  0.71786  0.81581  0.13571  1.0000
  C   C871      1.0  0.67279  0.85751  0.00754  1.0000
  H   H1542     1.0  0.48409  0.58782  0.42712  1.0000
  H   H1543     1.0  0.69042  0.85888  0.01033  1.0000
  H   H1544     1.0  0.71037  0.73536  0.24858  1.0000
  C   C872      1.0  0.48921  0.56644  0.46523  1.0000
  H   H1545     1.0  0.55333  0.72266  0.49303  1.0000
  H   H1546     1.0  0.73151  0.97130  0.40905  1.0000
  C   C873      1.0  0.48512  0.50907  0.23652  1.0000
  H   H1547     1.0  0.51316  0.99181  0.45988  1.0000
  H   H1548     1.0  0.55229  0.75035  0.49271  1.0000
  H   H1549     1.0  0.72739  0.76299  0.26997  1.0000
  H   H1550     1.0  0.63293  0.95950  0.49819  1.0000
  C   C874      1.0  0.52384  0.98896  0.43999  1.0000
  H   H1551     1.0  0.48371  0.52403  0.22653  1.0000
  H   H1552     1.0  0.73131  0.65338  0.02111  1.0000
  Fe  Fe95      1.0  0.55925  0.57606  0.88622  1.0000
  S   S189      1.0  0.57415  0.55393  0.90845  1.0000
  S   S190      1.0  0.57771  0.61581  0.89605  1.0000
  Fe  Fe96      1.0  0.52883  0.53594  0.83730  1.0000
  S   S191      1.0  0.54217  0.51169  0.85687  1.0000
  S   S192      1.0  0.50611  0.52935  0.79110  1.0000
  Fe  Fe97      1.0  0.53728  0.52415  0.90792  1.0000
  H   H1553     1.0  0.57114  0.57457  0.70456  1.0000
  Fe  Fe98      1.0  0.57767  0.54369  0.85575  1.0000
  S   S193      1.0  0.61078  0.54288  0.83683  1.0000
  S   S194      1.0  0.52190  0.54701  0.88862  1.0000
  S   S195      1.0  0.56459  0.56707  0.83337  1.0000
  Fe  Fe99      1.0  0.72144  0.63442  0.72343  1.0000
  H   H1554     1.0  0.53013  0.53808  0.64881  1.0000
  S   S196      1.0  0.68211  0.61799  0.73292  1.0000
  H   H1555     1.0  0.59293  0.94059  0.74263  1.0000
  H   H1556     1.0  0.68413  0.90394  0.99729  1.0000
  Fe  Fe100     1.0  0.66194  0.91191  0.81405  1.0000
  S   S197      1.0  0.62621  0.88955  0.83563  1.0000
  S   S198      1.0  0.67494  0.95096  0.82586  1.0000
  Fe  Fe101     1.0  0.65912  0.86959  0.77335  1.0000
  S   S199      1.0  0.62316  0.84475  0.79277  1.0000
  S   S200      1.0  0.67850  0.85975  0.73325  1.0000
  Fe  Fe102     1.0  0.61565  0.87532  0.78413  1.0000
  S   S201      1.0  0.58160  0.87220  0.76486  1.0000
  Fe  Fe103     1.0  0.63720  0.86137  0.84274  1.0000
  S   S202      1.0  0.62563  0.84304  0.89336  1.0000
  S   S203      1.0  0.65063  0.89916  0.76169  1.0000
  S   S204      1.0  0.67392  0.88459  0.82421  1.0000
  Fe  Fe104     1.0  0.63868  0.76009  0.58744  1.0000
  S   S205      1.0  0.67381  0.77005  0.56314  1.0000
  S   S206      1.0  0.62801  0.77139  0.63634  1.0000
  Fe  Fe105     1.0  0.61271  0.72044  0.53618  1.0000
  H   H1557     1.0  0.55232  0.54572  0.75493  1.0000
  C   C875      1.0  0.58389  0.96769  0.76061  1.0000
  Fe  Fe106     1.0  0.66134  0.73077  0.55971  1.0000
  S   S207      1.0  0.67794  0.70698  0.56978  1.0000
  C   C876      1.0  0.53359  0.57701  0.50031  1.0000
  S   S208      1.0  0.66888  0.78683  0.97209  1.0000
  S   S209      1.0  0.62745  0.72113  0.58661  1.0000
  S   S210      1.0  0.62085  0.75863  0.53891  1.0000
  Fe  Fe107     1.0  0.56862  0.95917  0.63647  1.0000
  S   S211      1.0  0.58428  0.93404  0.63969  1.0000
  Fe  Fe108     1.0  0.53876  0.97570  0.59621  1.0000
  S   S212      1.0  0.50977  0.96070  0.55763  1.0000
  H   H1558     1.0  0.52929  0.53451  0.71084  1.0000
  S   S213      1.0  0.53259  0.95548  0.64483  1.0000
  H   H1559     1.0  0.57852  0.74961  0.50508  1.0000
  H   H1560     1.0  0.60050  0.53855  0.66318  1.0000
  H   H1561     1.0  0.62779  0.87249  0.68518  1.0000
  C   C877      1.0  0.58244  0.88986  0.73057  1.0000
  C   C878      1.0  0.60202  0.90002  0.70944  1.0000
  C   C879      1.0  0.60236  0.91369  0.68191  1.0000
  C   C880      1.0  0.58330  0.91778  0.67563  1.0000
  C   C881      1.0  0.56364  0.90771  0.69678  1.0000
  C   C882      1.0  0.56315  0.89359  0.72404  1.0000
  H   H1562     1.0  0.61686  0.89720  0.71420  1.0000
  H   H1563     1.0  0.61748  0.92119  0.66537  1.0000
  H   H1564     1.0  0.54866  0.91037  0.69170  1.0000
  H   H1565     1.0  0.54781  0.88559  0.74013  1.0000
  C   C883      1.0  0.66489  0.83455  0.70724  1.0000
  C   C884      1.0  0.64282  0.81609  0.71511  1.0000
  C   C885      1.0  0.63218  0.79669  0.69339  1.0000
  C   C886      1.0  0.64322  0.79564  0.66334  1.0000
  C   C887      1.0  0.66540  0.81395  0.65554  1.0000
  C   C888      1.0  0.67622  0.83324  0.67754  1.0000
  H   H1566     1.0  0.63389  0.81682  0.73783  1.0000
  H   H1567     1.0  0.61498  0.78265  0.69953  1.0000
  H   H1568     1.0  0.67413  0.81335  0.63251  1.0000
  H   H1569     1.0  0.69332  0.84743  0.67125  1.0000
  C   C889      1.0  0.63718  0.82642  0.91378  1.0000
  C   C890      1.0  0.62667  0.81482  0.94390  1.0000
  C   C891      1.0  0.63584  0.80215  0.96168  1.0000
  C   C892      1.0  0.65582  0.80125  0.94967  1.0000
  C   C893      1.0  0.66616  0.81263  0.91934  1.0000
  C   C894      1.0  0.65680  0.82502  0.90131  1.0000
  H   H1570     1.0  0.61146  0.81582  0.95368  1.0000
  H   H1571     1.0  0.65395  0.93577  0.70541  1.0000
  H   H1572     1.0  0.68162  0.81199  0.90988  1.0000
  H   H1573     1.0  0.66492  0.83376  0.87804  1.0000
  C   C895      1.0  0.69737  0.96972  0.85286  1.0000
  H   H1574     1.0  0.49584  0.54572  0.52737  1.0000
  C   C896      1.0  0.65003  0.59345  0.89167  1.0000
  H   H1575     1.0  0.67746  0.94240  0.91294  1.0000
  H   H1576     1.0  0.57863  0.80237  0.72882  1.0000
  H   H1577     1.0  0.52177  0.50366  0.70688  1.0000
  H   H1578     1.0  0.52303  0.50717  0.64499  1.0000
  C   C897      1.0  0.71578  0.73247  0.61039  1.0000
  C   C898      1.0  0.69809  0.71031  0.60117  1.0000
  C   C899      1.0  0.69741  0.68993  0.61522  1.0000
  C   C900      1.0  0.71432  0.69160  0.63813  1.0000
  C   C901      1.0  0.57979  0.66191  0.98582  1.0000
  H   H1579     1.0  0.57979  0.96415  0.78761  1.0000
  H   H1580     1.0  0.68381  0.67272  0.60814  1.0000
  H   H1581     1.0  0.72111  0.68204  0.98903  1.0000
  C   C902      1.0  0.57854  0.63158  0.93303  1.0000
  C   C903      1.0  0.55833  0.62656  0.95179  1.0000
  C   C904      1.0  0.55893  0.64173  0.97793  1.0000
  C   C905      1.0  0.66475  0.95505  0.70910  1.0000
  C   C906      1.0  0.60012  0.66652  0.96767  1.0000
  C   C907      1.0  0.59939  0.65165  0.94111  1.0000
  H   H1582     1.0  0.54202  0.61181  0.94475  1.0000
  C   C908      1.0  0.70740  0.93567  0.94813  1.0000
  C   C909      1.0  0.67524  0.61308  0.89062  1.0000
  H   H1583     1.0  0.61504  0.65591  0.92640  1.0000
  C   C910      1.0  0.63096  0.56435  0.80884  1.0000
  C   C911      1.0  0.65053  0.56219  0.79730  1.0000
  C   C912      1.0  0.66680  0.57887  0.77481  1.0000
  C   C913      1.0  0.66365  0.59788  0.76372  1.0000
  C   C914      1.0  0.64402  0.59993  0.77512  1.0000
  C   C915      1.0  0.62789  0.58341  0.79779  1.0000
  H   H1584     1.0  0.65296  0.54740  0.80551  1.0000
  H   H1585     1.0  0.68132  0.57656  0.76520  1.0000
  H   H1586     1.0  0.64123  0.61438  0.76631  1.0000
  H   H1587     1.0  0.61308  0.58544  0.80671  1.0000
  H   H1588     1.0  0.62557  0.80472  0.57449  1.0000
  H   H1589     1.0  0.60782  0.96812  0.72273  1.0000
  H   H1590     1.0  0.64231  0.56677  0.66094  1.0000
  C   C916      1.0  0.63320  0.86462  0.66424  1.0000
  H   H1591     1.0  0.55153  0.98808  0.82968  1.0000
  S   S214      1.0  0.57592  0.69355  0.52289  1.0000
  H   H1592     1.0  0.49970  0.95772  0.71273  1.0000
  C   C917      1.0  0.64034  0.92324  0.91207  1.0000
  H   H1593     1.0  0.54287  0.61945  0.51921  1.0000
  C   C918      1.0  0.52137  0.52050  0.66120  1.0000
  C   C919      1.0  0.67326  0.90020  0.66482  1.0000
  H   H1594     1.0  0.50985  0.62640  0.52695  1.0000
  C   C920      1.0  0.51164  0.98416  0.86533  1.0000
  C   C921      1.0  0.59719  0.82761  0.66982  1.0000
  C   C922      1.0  0.57089  0.50777  0.77700  1.0000
  H   H1595     1.0  0.60900  0.73609  0.78060  1.0000
  C   C923      1.0  0.54967  0.57228  0.52399  1.0000
  H   H1596     1.0  0.53802  0.60398  0.55726  1.0000
  H   H1597     1.0  0.60635  0.81750  0.67763  1.0000
  H   H1598     1.0  0.65086  0.95676  0.77245  1.0000
  H   H1599     1.0  0.61573  0.82227  0.55045  1.0000
  C   C924      1.0  0.63861  0.70958  0.67940  1.0000
  H   H1600     1.0  0.72076  0.77545  0.64694  1.0000
  C   C925      1.0  0.70168  0.71084  0.73033  1.0000
  H   H1601     1.0  0.62687  0.69786  0.69938  1.0000
  H   H1602     1.0  0.62760  0.71457  0.66344  1.0000
  H   H1603     1.0  0.49116  0.52468  0.58102  1.0000
  H   H1604     1.0  0.48934  0.95842  0.65645  1.0000
  H   H1605     1.0  0.63015  0.95719  0.81911  1.0000
  C   C926      1.0  0.56537  0.73440  0.98488  1.0000
  N   N50       1.0  0.71359  0.62862  0.85400  1.0000
  C   C927      1.0  0.49593  0.96844  0.73032  1.0000
  C   C928      1.0  0.60448  0.86931  0.59663  1.0000
  H   H1606     1.0  0.55924  0.51358  0.67757  1.0000
  H   H1607     1.0  0.59896  0.58320  0.72430  1.0000
  H   H1608     1.0  0.51913  0.97223  0.85832  1.0000
  H   H1609     1.0  0.63514  0.72112  0.75692  1.0000
  H   H1610     1.0  0.49698  0.60442  0.55937  1.0000
  C   C929      1.0  0.63424  0.55776  0.68492  1.0000
  C   C930      1.0  0.57592  0.59297  0.75074  1.0000
  S   S215      1.0  0.52567  0.49837  0.95219  1.0000
  H   H1611     1.0  0.63777  0.93083  0.93586  1.0000
  H   H1612     1.0  0.69685  0.91057  0.89093  1.0000
  H   H1613     1.0  0.66107  0.98551  0.72282  1.0000
  H   H1614     1.0  0.70812  0.74092  0.70009  1.0000
  H   H1615     1.0  0.55801  0.58644  0.54270  1.0000
  H   H1616     1.0  0.58081  0.55394  0.76838  1.0000
  C   C931      1.0  0.58923  0.83556  0.70215  1.0000
  C   C932      1.0  0.56086  0.95487  0.74212  1.0000
  H   H1617     1.0  0.64046  0.59621  0.91315  1.0000
  H   H1618     1.0  0.59880  0.87210  0.64984  1.0000
  H   H1619     1.0  0.60442  0.91813  0.79491  1.0000
  S   S216      1.0  0.64565  0.72745  0.50901  1.0000
  H   H1620     1.0  0.73027  0.57605  0.78764  1.0000
  C   C933      1.0  0.68875  0.89607  0.97528  1.0000
  H   H1621     1.0  0.62342  0.88078  0.59307  1.0000
  H   H1622     1.0  0.58628  0.59663  0.77386  1.0000
  H   H1623     1.0  0.58169  0.60994  0.73719  1.0000
  H   H1624     1.0  0.55714  0.58589  0.75757  1.0000
  H   H1625     1.0  0.68284  0.61372  0.91555  1.0000
  H   H1626     1.0  0.59823  0.89947  0.60667  1.0000
  H   H1627     1.0  0.61457  0.67864  0.62790  1.0000
  C   C934      1.0  0.48887  0.55928  0.95499  1.0000
  H   H1628     1.0  0.71904  0.62677  0.60435  1.0000
  H   H1629     1.0  0.66869  0.90619  0.68862  1.0000
  H   H1630     1.0  0.64931  0.57583  0.89439  1.0000
  H   H1631     1.0  0.65276  0.88987  0.93422  1.0000
  H   H1632     1.0  0.71757  0.60651  0.79161  1.0000
  C   C935      1.0  0.53189  0.52142  0.69544  1.0000
  C   C936      1.0  0.56941  0.57062  0.50465  1.0000
  N   N51       1.0  0.60011  0.73736  0.90208  1.0000
  C   C937      1.0  0.59412  0.73744  0.93877  1.0000
  C   C938      1.0  0.62475  0.74068  0.89766  1.0000
  C   C939      1.0  0.59924  0.75826  0.88584  1.0000
  C   C940      1.0  0.58283  0.71523  0.88477  1.0000
  C   C941      1.0  0.57919  0.69141  0.89959  1.0000
  C   C942      1.0  0.56944  0.73460  0.94711  1.0000
  C   C943      1.0  0.60709  0.76287  0.84846  1.0000
  C   C944      1.0  0.63381  0.72983  0.92467  1.0000
  C   C945      1.0  0.65747  0.73167  0.91458  1.0000
  C   C946      1.0  0.55888  0.67067  0.88281  1.0000
  C   C947      1.0  0.52879  0.60607  0.53551  1.0000
  C   C948      1.0  0.60751  0.78559  0.83577  1.0000
  H   H1633     1.0  0.60712  0.75413  0.95048  1.0000
  H   H1634     1.0  0.59553  0.72319  0.95269  1.0000
  H   H1635     1.0  0.62693  0.73385  0.87288  1.0000
  H   H1636     1.0  0.63756  0.75987  0.89766  1.0000
  H   H1637     1.0  0.61020  0.77470  0.89998  1.0000
  H   H1638     1.0  0.58124  0.75624  0.88667  1.0000
  H   H1639     1.0  0.56552  0.71492  0.88356  1.0000
  H   H1640     1.0  0.58823  0.71517  0.85825  1.0000
  H   H1641     1.0  0.57520  0.69002  0.92678  1.0000
  H   H1642     1.0  0.59493  0.68910  0.89487  1.0000
  H   H1643     1.0  0.56713  0.74944  0.93689  1.0000
  N   N52       1.0  0.51588  0.58310  0.51679  1.0000
  H   H1644     1.0  0.59476  0.74823  0.83265  1.0000
  H   H1645     1.0  0.62485  0.76471  0.84445  1.0000
  H   H1646     1.0  0.63617  0.73970  0.94836  1.0000
  H   H1647     1.0  0.62164  0.71108  0.92972  1.0000
  H   H1648     1.0  0.67057  0.75048  0.91092  1.0000
  H   H1649     1.0  0.66364  0.72416  0.93475  1.0000
  H   H1650     1.0  0.65606  0.72164  0.89124  1.0000
  H   H1651     1.0  0.55703  0.65378  0.89307  1.0000
  H   H1652     1.0  0.54227  0.67138  0.88769  1.0000
  H   H1653     1.0  0.56204  0.67079  0.85541  1.0000
  H   H1654     1.0  0.61233  0.78802  0.80875  1.0000
  H   H1655     1.0  0.59013  0.78489  0.83907  1.0000
  H   H1656     1.0  0.62064  0.80112  0.84941  1.0000
  C   C949      1.0  0.61486  0.95546  0.80469  1.0000
  C   C950      1.0  0.59685  0.92892  0.80628  1.0000
  C   C951      1.0  0.58996  0.92060  0.84238  1.0000
  H   H1657     1.0  0.62656  0.93626  0.75079  1.0000
  H   H1658     1.0  0.67841  0.95807  0.72770  1.0000
  C   C952      1.0  0.50099  0.49363  0.50965  1.0000
  H   H1659     1.0  0.58057  0.92522  0.79313  1.0000
  H   H1660     1.0  0.48560  0.54130  0.94739  1.0000
  H   H1661     1.0  0.65321  0.86600  0.97247  1.0000
  H   H1662     1.0  0.59896  0.85520  0.57746  1.0000
  H   H1663     1.0  0.58124  0.93012  0.85456  1.0000
  C   C953      1.0  0.50857  0.56963  0.98021  1.0000
  H   H1664     1.0  0.69198  0.66013  0.77859  1.0000
  H   H1665     1.0  0.60779  0.96558  0.81943  1.0000
  H   H1666     1.0  0.61303  0.66114  0.66418  1.0000
  H   H1667     1.0  0.56720  0.71972  0.99687  1.0000
  H   H1668     1.0  0.71388  0.94404  0.92321  1.0000
  H   H1669     1.0  0.49800  0.96433  0.91199  1.0000
  C   C954      1.0  0.69583  0.65469  0.83147  1.0000
  C   C955      1.0  0.64954  0.96623  0.72086  1.0000
  H   H1670     1.0  0.69892  0.94570  0.95977  1.0000
  H   H1671     1.0  0.54154  0.97807  0.96504  1.0000
  H   H1672     1.0  0.65464  0.68606  0.67432  1.0000
  C   C956      1.0  0.52666  0.63679  0.57414  1.0000
  H   H1673     1.0  0.70216  0.78539  0.62628  1.0000
  C   C957      1.0  0.62462  0.67258  0.64386  1.0000
  H   H1674     1.0  0.68815  0.69226  0.73434  1.0000
  H   H1675     1.0  0.52999  0.62897  0.59685  1.0000
  C   C958      1.0  0.69536  0.89957  0.91321  1.0000
  H   H1676     1.0  0.58041  0.56691  0.52222  1.0000
  H   H1677     1.0  0.72076  0.89455  0.85945  1.0000
  H   H1678     1.0  0.62779  0.79355  0.98506  1.0000
  C   C959      1.0  0.72450  0.64382  0.88424  1.0000
  H   H1679     1.0  0.57917  0.54887  0.98134  1.0000
  C   C960      1.0  0.55894  0.50887  0.74425  1.0000
  C   C961      1.0  0.71681  0.96640  0.85935  1.0000
  H   H1680     1.0  0.54911  0.96250  0.74928  1.0000
  H   H1681     1.0  0.71386  0.65210  0.89376  1.0000
  H   H1682     1.0  0.60314  0.96945  0.52597  1.0000
  C   C962      1.0  0.66605  0.90831  0.93974  1.0000
  H   H1683     1.0  0.68522  0.67823  0.80678  1.0000
  H   H1684     1.0  0.63305  0.83020  0.62906  1.0000
  H   H1685     1.0  0.59611  0.89098  0.56338  1.0000
  H   H1686     1.0  0.56997  0.52027  0.79548  1.0000
  H   H1687     1.0  0.63948  0.93409  0.89106  1.0000
  C   C963      1.0  0.61040  0.80777  0.56908  1.0000
  H   H1688     1.0  0.67852  0.73841  0.73938  1.0000
  H   H1689     1.0  0.49288  0.54010  0.61958  1.0000
  H   H1690     1.0  0.67340  0.96303  0.68488  1.0000
  H   H1691     1.0  0.54355  0.65042  0.56359  1.0000
  H   H1692     1.0  0.59082  0.98695  0.75620  1.0000
  H   H1693     1.0  0.56638  0.54378  0.67589  1.0000
  H   H1694     1.0  0.51595  0.64556  0.58147  1.0000
  C   C964      1.0  0.64587  0.69359  0.65843  1.0000
  H   H1695     1.0  0.68066  0.88184  0.90756  1.0000
  C   C965      1.0  0.66411  0.92365  0.91115  1.0000
  H   H1696     1.0  0.66194  0.74968  0.64723  1.0000
  H   H1697     1.0  0.56383  0.95668  0.71464  1.0000
  H   H1698     1.0  0.61220  0.71733  0.72869  1.0000
  C   C966      1.0  0.57124  0.81431  0.72190  1.0000
  H   H1699     1.0  0.57800  0.75145  0.99600  1.0000
  H   H1700     1.0  0.63054  0.66194  0.62813  1.0000
  H   H1701     1.0  0.68575  0.91598  0.65048  1.0000
  C   C967      1.0  0.71012  0.78482  0.65039  1.0000
  H   H1702     1.0  0.67476  0.62997  0.88692  1.0000
  H   H1703     1.0  0.63739  0.54221  0.68773  1.0000
  H   H1704     1.0  0.57293  0.87339  0.59243  1.0000
  H   H1705     1.0  0.51145  0.58782  0.98587  1.0000
  C   C968      1.0  0.69723  0.67052  0.80210  1.0000
  H   H1706     1.0  0.54102  0.50536  0.75201  1.0000
  C   C969      1.0  0.63729  0.95551  0.75481  1.0000
  H   H1707     1.0  0.66614  0.91683  0.88641  1.0000
  H   H1708     1.0  0.68245  0.73922  0.65236  1.0000
  N   N53       1.0  0.61227  0.84694  0.64546  1.0000
  C   C970      1.0  0.55812  0.52794  0.69217  1.0000
  C   C971      1.0  0.65147  0.88604  0.64416  1.0000
  H   H1709     1.0  0.55525  0.80439  0.70705  1.0000
  H   H1710     1.0  0.70603  0.89740  0.98091  1.0000
  H   H1711     1.0  0.63656  0.96309  0.70117  1.0000
  N   N54       1.0  0.62255  0.96582  0.77005  1.0000
  H   H1712     1.0  0.71017  0.98392  0.54140  1.0000
  H   H1713     1.0  0.65745  0.70347  0.63727  1.0000
  H   H1714     1.0  0.54746  0.73184  0.99021  1.0000
  H   H1715     1.0  0.61562  0.75626  0.74600  1.0000
  H   H1716     1.0  0.59649  0.79139  0.55808  1.0000
  H   H1717     1.0  0.72183  0.80324  0.65819  1.0000
  C   C972      1.0  0.60197  0.95982  0.74782  1.0000
  H   H1718     1.0  0.70087  0.66585  0.85416  1.0000
  H   H1719     1.0  0.68998  0.71319  0.68142  1.0000
  H   H1720     1.0  0.63826  0.75107  0.69457  1.0000
  C   C973      1.0  0.71163  0.64282  0.82534  1.0000
  H   H1721     1.0  0.55205  0.93580  0.74872  1.0000
  H   H1722     1.0  0.64231  0.85550  0.67593  1.0000
  H   H1723     1.0  0.71524  0.68519  0.79901  1.0000
  H   H1724     1.0  0.58947  0.51226  0.77294  1.0000
  H   H1725     1.0  0.64285  0.57034  0.70557  1.0000
  C   C974      1.0  0.57986  0.57558  0.72853  1.0000
  N   N55       1.0  0.65809  0.73151  0.69427  1.0000
  C   C975      1.0  0.62865  0.73049  0.74020  1.0000
  C   C976      1.0  0.59214  0.88414  0.58943  1.0000
  H   H1726     1.0  0.66020  0.91333  0.96346  1.0000
  C   C977      1.0  0.50522  0.56287  0.57577  1.0000
  C   C978      1.0  0.71995  0.59908  0.81533  1.0000
  H   H1727     1.0  0.59520  0.79823  0.61813  1.0000
  H   H1728     1.0  0.57922  0.84522  0.63134  1.0000
  C   C979      1.0  0.48889  0.53934  0.59258  1.0000
  H   H1729     1.0  0.58601  0.81652  0.59518  1.0000
  H   H1730     1.0  0.57766  0.90137  0.84264  1.0000
  H   H1731     1.0  0.60598  0.56622  0.68157  1.0000
  H   H1732     1.0  0.60729  0.54635  0.73924  1.0000
  C   C980      1.0  0.60125  0.81381  0.60125  1.0000
  H   H1733     1.0  0.67734  0.64096  0.83382  1.0000
  C   C981      1.0  0.67310  0.74737  0.66632  1.0000
  C   C982      1.0  0.64697  0.74459  0.71260  1.0000
  C   C983      1.0  0.49689  0.97496  0.53419  1.0000
  C   C984      1.0  0.59605  0.53664  0.71780  1.0000
  H   H1734     1.0  0.71343  0.67574  0.64883  1.0000
  H   H1735     1.0  0.69179  0.59306  0.87293  1.0000
  H   H1736     1.0  0.60554  0.92353  0.85684  1.0000
  C   C985      1.0  0.49144  0.96988  0.89013  1.0000
  H   H1737     1.0  0.67107  0.97479  0.51781  1.0000
  C   C986      1.0  0.69126  0.77255  0.67720  1.0000
  C   C987      1.0  0.69617  0.98938  0.86666  1.0000
  H   H1738     1.0  0.71816  0.95158  0.84833  1.0000
  C   C988      1.0  0.49143  0.50310  0.76710  1.0000
  H   H1739     1.0  0.52330  0.56581  0.57887  1.0000
  N   N56       1.0  0.57105  0.53165  0.72456  1.0000
  H   H1740     1.0  0.70304  0.58400  0.82283  1.0000
  H   H1741     1.0  0.53942  0.55510  0.53699  1.0000
  H   H1742     1.0  0.70432  0.63139  0.80311  1.0000
  H   H1743     1.0  0.61631  0.68182  0.97357  1.0000
  C   C989      1.0  0.57036  0.55106  0.74545  1.0000
  H   H1744     1.0  0.58097  0.81458  0.65753  1.0000
  H   H1745     1.0  0.60417  0.84516  0.71898  1.0000
  H   H1746     1.0  0.54414  0.98704  0.90393  1.0000
  H   H1747     1.0  0.58130  0.84716  0.69619  1.0000
  H   H1748     1.0  0.50253  0.51535  0.66437  1.0000
  H   H1749     1.0  0.56630  0.82051  0.74524  1.0000
  H   H1750     1.0  0.52454  0.57080  0.96807  1.0000
  H   H1751     1.0  0.69985  0.77215  0.70076  1.0000
  H   H1752     1.0  0.64099  0.59369  0.86844  1.0000
  H   H1753     1.0  0.71773  0.71059  0.72063  1.0000
  H   H1754     1.0  0.65725  0.88065  0.62094  1.0000
  C   C990      1.0  0.67178  0.72514  0.71889  1.0000
  N   N57       1.0  0.68986  0.90982  0.94411  1.0000
  S   S217      1.0  0.57328  0.97612  0.58592  1.0000
  H   H1755     1.0  0.71668  0.74824  0.59916  1.0000
  C   C991      1.0  0.69340  0.72312  0.70510  1.0000
  C   C992      1.0  0.68992  0.60840  0.86318  1.0000
  C   C993      1.0  0.67150  0.86927  0.97497  1.0000
  C   C994      1.0  0.62256  0.74676  0.76173  1.0000
  H   H1756     1.0  0.68241  0.78363  0.68155  1.0000
  H   H1757     1.0  0.55572  0.71773  0.93706  1.0000
  H   H1758     1.0  0.62610  0.90489  0.90935  1.0000
  H   H1759     1.0  0.67582  0.86037  0.95417  1.0000
  H   H1760     1.0  0.72484  0.63248  0.90509  1.0000
  C   C995      1.0  0.60810  0.55020  0.68514  1.0000
  C   C996      1.0  0.59808  0.85826  0.63220  1.0000
  C   C997      1.0  0.51376  0.61770  0.54817  1.0000
  H   H1761     1.0  0.68200  0.88927  0.67061  1.0000
  C   C998      1.0  0.71821  0.89750  0.91362  1.0000
  H   H1762     1.0  0.67905  0.60175  0.84044  1.0000
  H   H1763     1.0  0.49386  0.57063  0.93229  1.0000
  C   C999      1.0  0.62058  0.83585  0.61849  1.0000
  H   H1764     1.0  0.63819  0.75989  0.77502  1.0000
  H   H1765     1.0  0.64410  0.89811  0.63792  1.0000
  H   H1766     1.0  0.59723  0.51980  0.71604  1.0000
  C   C1000     1.0  0.73248  0.71367  0.64654  1.0000
  H   H1767     1.0  0.66052  0.76065  0.72491  1.0000
  H   H1768     1.0  0.66002  0.70818  0.73168  1.0000
  Fe  Fe109     1.0  0.65485  0.76584  0.51421  1.0000
  H   H1769     1.0  0.63078  0.84879  0.59873  1.0000
  H   H1770     1.0  0.54332  0.99045  0.50124  1.0000
  H   H1771     1.0  0.50343  0.57704  0.58963  1.0000
  C   C1001     1.0  0.49889  0.56293  0.53853  1.0000
  H   H1772     1.0  0.70590  0.86654  0.88131  1.0000
  H   H1773     1.0  0.70577  0.72036  0.75457  1.0000
  C   C1002     1.0  0.72055  0.88477  0.88245  1.0000
  H   H1774     1.0  0.50397  0.98668  0.84191  1.0000
  H   H1775     1.0  0.71037  0.61464  0.56322  1.0000
  H   H1776     1.0  0.54130  0.54872  0.97915  1.0000
  H   H1777     1.0  0.71891  0.88741  0.93563  1.0000
  H   H1778     1.0  0.71792  0.65637  0.56563  1.0000
  C   C1003     1.0  0.51315  0.99128  0.73752  1.0000
  H   H1779     1.0  0.54305  0.63814  0.99158  1.0000
  H   H1780     1.0  0.72921  0.73101  0.53998  1.0000
  Fe  Fe110     1.0  0.55051  0.99153  0.66832  1.0000
  C   C1004     1.0  0.60881  0.98473  0.50865  1.0000
  H   H1781     1.0  0.68123  0.99214  0.86182  1.0000
  C   C1005     1.0  0.72895  0.94166  0.97021  1.0000
  C   C1006     1.0  0.72946  0.61839  0.84278  1.0000
  H   H1782     1.0  0.72919  0.65649  0.81695  1.0000
  H   H1783     1.0  0.48902  0.59173  0.50017  1.0000
  C   C1007     1.0  0.63614  0.99229  0.77298  1.0000
  C   C1008     1.0  0.72509  0.62776  0.57800  1.0000
  H   H1784     1.0  0.72336  0.93797  0.99690  1.0000
  H   H1785     1.0  0.55687  0.49366  0.72832  1.0000
  H   H1786     1.0  0.88086  0.23358  0.32916  1.0000
  S   S218      1.0  0.96534  0.42868  0.35169  1.0000
  H   H1787     1.0  0.87980  0.13840  0.14737  1.0000
  S   S219      1.0  0.96574  0.43528  0.45114  1.0000
  Fe  Fe111     1.0  0.95858  0.39111  0.34413  1.0000
  S   S220      1.0  0.92487  0.36248  0.32281  1.0000
  Fe  Fe112     1.0  0.91669  0.21126  0.18123  1.0000
  S   S221      1.0  0.90576  0.23700  0.16106  1.0000
  S   S222      1.0  0.94758  0.20714  0.16117  1.0000
  Fe  Fe113     1.0  0.87728  0.19332  0.23480  1.0000
  S   S223      1.0  0.86448  0.21895  0.21863  1.0000
  S   S224      1.0  0.86179  0.16360  0.27330  1.0000
  Fe  Fe114     1.0  0.86899  0.20767  0.16631  1.0000
  S   S225      1.0  0.84321  0.19893  0.12371  1.0000
  Fe  Fe115     1.0  0.90279  0.24579  0.21486  1.0000
  S   S226      1.0  0.92751  0.28440  0.22631  1.0000
  S   S227      1.0  0.88029  0.18131  0.18271  1.0000
  S   S228      1.0  0.91505  0.22070  0.23488  1.0000
  H   H1788     1.0  0.81178  0.15521  0.24027  1.0000
  C   C1009     1.0  0.78464  0.11238  0.18031  1.0000
  C   C1010     1.0  0.96374  0.28274  0.37085  1.0000
  S   S229      1.0  0.75322  0.11498  0.47030  1.0000
  S   S230      1.0  0.79248  0.10042  0.04644  1.0000
  Fe  Fe116     1.0  0.76704  0.10856  0.42105  1.0000
  S   S231      1.0  0.78175  0.13943  0.38415  1.0000
  C   C1011     1.0  0.77045  0.11140  0.23879  1.0000
  S   S232      1.0  0.78556  0.09004  0.44443  1.0000
  C   C1012     1.0  0.82945  0.17146  0.10236  1.0000
  C   C1013     1.0  0.83054  0.15137  0.11383  1.0000
  C   C1014     1.0  0.81912  0.12981  0.09642  1.0000
  C   C1015     1.0  0.80652  0.12806  0.06729  1.0000
  C   C1016     1.0  0.80552  0.14817  0.05571  1.0000
  C   C1017     1.0  0.81688  0.16971  0.07322  1.0000
  H   H1789     1.0  0.83998  0.15236  0.13630  1.0000
  H   H1790     1.0  0.82002  0.11437  0.10559  1.0000
  H   H1791     1.0  0.79584  0.14710  0.03342  1.0000
  H   H1792     1.0  0.81580  0.18510  0.06420  1.0000
  C   C1018     1.0  0.83983  0.15763  0.30432  1.0000
  C   C1019     1.0  0.82908  0.17204  0.30889  1.0000
  C   C1020     1.0  0.81144  0.16628  0.33360  1.0000
  C   C1021     1.0  0.80435  0.14611  0.35391  1.0000
  C   C1022     1.0  0.81509  0.13170  0.34927  1.0000
  C   C1023     1.0  0.83272  0.13746  0.32459  1.0000
  H   H1793     1.0  0.83435  0.18760  0.29347  1.0000
  H   H1794     1.0  0.80319  0.17750  0.33700  1.0000
  H   H1795     1.0  0.80979  0.11612  0.36466  1.0000
  H   H1796     1.0  0.84092  0.12619  0.32122  1.0000
  C   C1024     1.0  0.92536  0.34098  0.29528  1.0000
  C   C1025     1.0  0.94609  0.34424  0.27962  1.0000
  C   C1026     1.0  0.94617  0.32689  0.25802  1.0000
  C   C1027     1.0  0.92560  0.30595  0.25212  1.0000
  C   C1028     1.0  0.90470  0.30284  0.26716  1.0000
  C   C1029     1.0  0.90459  0.32038  0.28861  1.0000
  H   H1797     1.0  0.96210  0.36011  0.28418  1.0000
  H   H1798     1.0  0.96234  0.32955  0.24612  1.0000
  H   H1799     1.0  0.88868  0.28695  0.26232  1.0000
  H   H1800     1.0  0.88841  0.31786  0.30033  1.0000
  C   C1030     1.0  0.93515  0.28415  0.33272  1.0000
  H   H1801     1.0  0.94716  0.24610  0.12414  1.0000
  H   H1802     1.0  0.85064  0.11517  0.24509  1.0000
  C   C1031     1.0  0.92978  0.31920  0.37808  1.0000
  H   H1803     1.0  0.83522  0.08940  0.21909  1.0000
  H   H1804     1.0  0.81534  0.12131  0.25276  1.0000
  H   H1805     1.0  0.95883  0.41896  0.07828  1.0000
  H   H1806     1.0  0.95711  0.41537  0.03360  1.0000
  H   H1807     1.0  0.93425  0.33635  0.42669  1.0000
  H   H1808     1.0  0.87722  0.16496  0.10263  1.0000
  C   C1032     1.0  0.96680  0.22708  0.13103  1.0000
  H   H1809     1.0  0.74002  0.11488  0.28683  1.0000
  H   H1810     1.0  0.90770  0.18249  0.10438  1.0000
  C   C1033     1.0  0.97803  0.46145  0.47562  1.0000
  H   H1811     1.0  0.86113  0.11448  0.20336  1.0000
  H   H1812     1.0  0.94081  0.19367  0.07754  1.0000
  N   N58       1.0  0.94424  0.40800  0.22026  1.0000
  C   C1034     1.0  0.96301  0.40028  0.21999  1.0000
  C   C1035     1.0  0.93972  0.41267  0.25597  1.0000
  C   C1036     1.0  0.91849  0.41738  0.26199  1.0000
  C   C1037     1.0  0.96025  0.19600  0.03270  1.0000
  H   H1813     1.0  0.94250  0.27755  0.31233  1.0000
  H   H1814     1.0  0.95646  0.48218  0.26124  1.0000
  H   H1815     1.0  0.93708  0.43493  0.19872  1.0000
  H   H1816     1.0  0.95797  0.38493  0.23703  1.0000
  H   H1817     1.0  0.93765  0.39792  0.27258  1.0000
  H   H1818     1.0  0.95511  0.42830  0.26583  1.0000
  H   H1819     1.0  0.90199  0.40200  0.25455  1.0000
  H   H1820     1.0  0.96428  0.33043  0.32993  1.0000
  H   H1821     1.0  0.90655  0.36723  0.25059  1.0000
  C   C1038     1.0  0.89715  0.14559  0.09846  1.0000
  H   H1822     1.0  0.91077  0.33556  0.40233  1.0000
  H   H1823     1.0  0.97447  0.30673  0.29055  1.0000
  H   H1824     1.0  0.88849  0.26178  0.31030  1.0000
  H   H1825     1.0  0.90032  0.42478  0.30279  1.0000
  H   H1826     1.0  0.76919  0.11978  0.11747  1.0000
  H   H1827     1.0  0.91836  0.24901  0.35657  1.0000
  H   H1828     1.0  0.91412  0.14781  0.08831  1.0000
  H   H1829     1.0  0.97624  0.46661  0.29890  1.0000
  H   H1830     1.0  0.89960  0.12611  0.14121  1.0000
  H   H1831     1.0  0.75672  0.11584  0.23045  1.0000
  C   C1039     1.0  0.95168  0.43040  0.20027  1.0000
  H   H1832     1.0  0.80864  0.19197  0.23628  1.0000
  H   H1833     1.0  0.75528  0.12108  0.17491  1.0000
  H   H1834     1.0  0.92664  0.38439  0.17949  1.0000
  H   H1835     1.0  0.76227  0.09174  0.23819  1.0000
  C   C1040     1.0  0.91593  0.42205  0.29896  1.0000
  C   C1041     1.0  0.96000  0.43006  0.16373  1.0000
  H   H1836     1.0  0.73935  0.09772  0.12343  1.0000
  H   H1837     1.0  0.87932  0.23177  0.06407  1.0000
  H   H1838     1.0  0.91373  0.40677  0.31452  1.0000
  H   H1839     1.0  0.78651  0.11289  0.28767  1.0000
  H   H1840     1.0  0.89708  0.20373  0.02553  1.0000
  C   C1042     1.0  0.77492  0.11908  0.27595  1.0000
  H   H1841     1.0  0.88099  0.33030  0.22215  1.0000
  H   H1842     1.0  0.88999  0.20744  0.10118  1.0000
  C   C1043     1.0  0.91998  0.32533  0.40951  1.0000
  H   H1843     1.0  0.91485  0.30864  0.36171  1.0000
  H   H1844     1.0  0.78323  0.15689  0.18015  1.0000
  H   H1845     1.0  0.97887  0.39785  0.00445  1.0000
  C   C1044     1.0  0.97717  0.25903  0.09106  1.0000
  N   N59       1.0  0.95366  0.29810  0.35780  1.0000
  C   C1045     1.0  0.96230  0.24432  0.11641  1.0000
  H   H1846     1.0  0.84116  0.15245  0.46101  1.0000
  H   H1847     1.0  0.90804  0.24420  0.04428  1.0000
  C   C1046     1.0  0.94363  0.30571  0.38699  1.0000
  C   C1047     1.0  0.75985  0.10685  0.16867  1.0000
  C   C1048     1.0  0.80202  0.18711  0.21045  1.0000
  S   S233      1.0  0.73760  0.05972  0.48851  1.0000
  C   C1049     1.0  0.97287  0.46623  0.01010  1.0000
  H   H1848     1.0  0.87105  0.18972  0.05019  1.0000
  H   H1849     1.0  0.79047  0.19516  0.20515  1.0000
  H   H1850     1.0  0.95047  0.26813  0.38638  1.0000
  H   H1851     1.0  0.91854  0.21978  0.08259  1.0000
  H   H1852     1.0  0.94130  0.33606  0.36526  1.0000
  H   H1853     1.0  0.97400  0.24794  0.22590  1.0000
  H   H1854     1.0  0.90450  0.26705  0.36684  1.0000
  H   H1855     1.0  0.95549  0.45294  0.01710  1.0000
  H   H1856     1.0  0.85304  0.13461  0.47893  1.0000
  C   C1050     1.0  0.91339  0.26219  0.34663  1.0000
  H   H1857     1.0  0.92056  0.43311  0.24779  1.0000
  H   H1858     1.0  0.78288  0.13856  0.27826  1.0000
  C   C1051     1.0  0.89560  0.25003  0.31918  1.0000
  H   H1859     1.0  0.90735  0.30901  0.42271  1.0000
  Fe  Fe117     1.0  0.75148  0.05670  0.43781  1.0000
  H   H1860     1.0  0.77272  0.15414  0.22309  1.0000
  H   H1861     1.0  0.92919  0.29571  0.31995  1.0000
  C   C1052     1.0  0.88860  0.34718  0.20788  1.0000
  H   H1862     1.0  0.74667  0.09038  0.18099  1.0000
  H   H1863     1.0  0.81846  0.15541  0.19738  1.0000
  C   C1053     1.0  0.83039  0.11984  0.20541  1.0000
  C   C1054     1.0  0.84517  0.10899  0.21915  1.0000
  H   H1864     1.0  0.79749  0.12481  0.16189  1.0000
  H   H1865     1.0  0.84149  0.13919  0.20479  1.0000
  H   H1866     1.0  0.82582  0.11351  0.17939  1.0000
  H   H1867     1.0  0.91104  0.15731  0.14835  1.0000
  C   C1055     1.0  0.95958  0.40788  0.05729  1.0000
  C   C1056     1.0  0.91107  0.36489  0.22446  1.0000
  H   H1868     1.0  0.97312  0.45329  0.12038  1.0000
  C   C1057     1.0  0.80849  0.11351  0.22791  1.0000
  H   H1869     1.0  0.78539  0.09541  0.17690  1.0000
  H   H1870     1.0  0.81687  0.19447  0.19226  1.0000
  H   H1871     1.0  0.94080  0.21410  0.04636  1.0000
  H   H1872     1.0  0.92291  0.35675  0.22495  1.0000
  H   H1873     1.0  0.90493  0.24969  0.08780  1.0000
  H   H1874     1.0  0.96049  0.17900  0.03732  1.0000
  H   H1875     1.0  0.79947  0.09398  0.23162  1.0000
  C   C1058     1.0  0.89792  0.23631  0.06763  1.0000
  C   C1059     1.0  0.78843  0.16033  0.20669  1.0000
  C   C1060     1.0  0.92261  0.38868  0.20497  1.0000
  S   S234      1.0  0.96881  0.38790  0.39628  1.0000
  H   H1876     1.0  0.97321  0.27191  0.07926  1.0000
  H   H1877     1.0  0.90925  0.39477  0.20123  1.0000
  H   H1878     1.0  0.87564  0.35399  0.20774  1.0000
  H   H1879     1.0  0.90367  0.24528  0.29767  1.0000
  H   H1880     1.0  0.89220  0.34352  0.18183  1.0000
  N   N60       1.0  0.79148  0.12169  0.21552  1.0000
  C   C1061     1.0  0.80360  0.14836  0.21565  1.0000
  H   H1881     1.0  0.96585  0.27057  0.23666  1.0000
  H   H1882     1.0  0.94567  0.41666  0.14873  1.0000
  H   H1883     1.0  0.93147  0.43819  0.30737  1.0000
  H   H1884     1.0  0.95355  0.45900  0.14698  1.0000
  H   H1885     1.0  0.87856  0.17767  0.48915  1.0000
  H   H1886     1.0  0.76225  0.08912  0.12290  1.0000
  C   C1062     1.0  0.90005  0.21433  0.07751  1.0000
  H   H1887     1.0  0.94512  0.38967  0.06058  1.0000
  C   C1063     1.0  0.89687  0.14170  0.13617  1.0000
  H   H1888     1.0  0.96481  0.39375  0.19482  1.0000
  C   C1064     1.0  0.93931  0.19631  0.05051  1.0000
  H   H1889     1.0  0.97499  0.42616  0.16273  1.0000
  C   C1065     1.0  0.87377  0.15293  0.03779  1.0000
  C   C1066     1.0  0.91614  0.17713  0.03619  1.0000
  C   C1067     1.0  0.89011  0.19504  0.05016  1.0000
  H   H1890     1.0  0.87604  0.13675  0.03852  1.0000
  C   C1068     1.0  0.84537  0.14657  0.48487  1.0000
  H   H1891     1.0  0.91607  0.18225  0.00968  1.0000
  C   C1069     1.0  0.89387  0.16760  0.09056  1.0000
  H   H1892     1.0  0.85732  0.14860  0.05202  1.0000
  H   H1893     1.0  0.95785  0.31773  0.40363  1.0000
  H   H1894     1.0  0.88289  0.12927  0.08808  1.0000
  C   C1070     1.0  0.94966  0.37819  0.49394  1.0000
  S   S235      1.0  0.74764  0.02044  0.42389  1.0000
  H   H1895     1.0  0.96575  0.44565  0.21321  1.0000
  H   H1896     1.0  0.94956  0.37583  0.46643  1.0000
  C   C1071     1.0  0.75758  0.10310  0.13084  1.0000
  H   H1897     1.0  0.97124  0.37425  0.03317  1.0000
  Fe  Fe118     1.0  0.77002  0.09471  0.49312  1.0000
  H   H1898     1.0  0.93625  0.15313  0.49170  1.0000
  H   H1899     1.0  0.93223  0.29029  0.40297  1.0000
  H   H1900     1.0  0.96511  0.26171  0.19371  1.0000
  N   N61       1.0  0.89400  0.17355  0.05399  1.0000
  H   H1901     1.0  0.95979  0.19869  0.00536  1.0000
  C   C1072     1.0  0.96788  0.45403  0.14677  1.0000
  H   H1902     1.0  0.91708  0.16019  0.03495  1.0000
  Fe  Fe119     1.0  0.97897  0.42651  0.40242  1.0000
  H   H1903     1.0  0.94400  0.18408  0.48954  1.0000
  C   C1073     1.0  0.97476  0.26482  0.21749  1.0000
  H   H1904     1.0  0.75589  0.11412  0.32288  1.0000
  C   C1074     1.0  0.97215  0.31993  0.34077  1.0000
  H   H1905     1.0  0.74363  0.08894  0.29560  1.0000
  C   C1075     1.0  0.75215  0.10855  0.29638  1.0000
  H   H1906     1.0  0.96801  0.27379  0.34990  1.0000
  H   H1907     1.0  0.97665  0.21051  0.04235  1.0000
  H   H1908     1.0  0.98189  0.30350  0.41514  1.0000
  C   C1076     1.0  0.97348  0.48407  0.25433  1.0000
  H   H1909     1.0  0.83165  0.13609  0.00159  1.0000
  H   H1910     1.0  0.90098  0.15820  0.49552  1.0000
  S   S236      1.0  0.73424  0.07488  0.41087  1.0000
  H   H1911     1.0  0.97359  0.49109  0.04768  1.0000
  C   C1077     1.0  0.86961  0.15617  0.00042  1.0000
  H   H1912     1.0  0.97993  0.26367  0.42038  1.0000
  C   C1078     1.0  0.96946  0.48147  0.76101  1.0000
  S   S237      1.0  0.96438  0.42449  0.86425  1.0000
  H   H1913     1.0  0.91376  0.37048  0.68095  1.0000
  H   H1914     1.0  0.93465  0.36253  0.50511  1.0000
  Fe  Fe120     1.0  0.95981  0.38762  0.85595  1.0000
  S   S238      1.0  0.92566  0.35673  0.83974  1.0000
  Fe  Fe121     1.0  0.91193  0.21010  0.68402  1.0000
  S   S239      1.0  0.89961  0.23469  0.66365  1.0000
  S   S240      1.0  0.94285  0.20673  0.66124  1.0000
  Fe  Fe122     1.0  0.87387  0.19311  0.74007  1.0000
  S   S241      1.0  0.85959  0.21737  0.72288  1.0000
  S   S242      1.0  0.86236  0.16825  0.78542  1.0000
  Fe  Fe123     1.0  0.86337  0.20487  0.67095  1.0000
  S   S243      1.0  0.83839  0.19723  0.62748  1.0000
  Fe  Fe124     1.0  0.89748  0.24479  0.71706  1.0000
  S   S244      1.0  0.91930  0.28438  0.72564  1.0000
  S   S245      1.0  0.87572  0.17940  0.68852  1.0000
  S   S246      1.0  0.91147  0.22126  0.73723  1.0000
  H   H1915     1.0  0.88728  0.20822  0.53193  1.0000
  H   H1916     1.0  0.89844  0.40571  0.79238  1.0000
  C   C1079     1.0  0.80759  0.06643  0.86980  1.0000
  S   S247      1.0  0.75030  0.10879  0.97889  1.0000
  S   S248      1.0  0.78912  0.10194  0.54292  1.0000
  Fe  Fe125     1.0  0.76483  0.10567  0.92814  1.0000
  S   S249      1.0  0.77596  0.13441  0.88786  1.0000
  H   H1917     1.0  0.93910  0.23115  0.81042  1.0000
  S   S250      1.0  0.78715  0.09028  0.94798  1.0000
  C   C1080     1.0  0.82505  0.17060  0.60416  1.0000
  C   C1081     1.0  0.82389  0.14949  0.61583  1.0000
  C   C1082     1.0  0.81270  0.12865  0.59682  1.0000
  C   C1083     1.0  0.80268  0.12867  0.56587  1.0000
  C   C1084     1.0  0.80391  0.14979  0.55412  1.0000
  C   C1085     1.0  0.81495  0.17060  0.57326  1.0000
  H   H1918     1.0  0.83148  0.14919  0.63959  1.0000
  H   H1919     1.0  0.81190  0.11241  0.60607  1.0000
  H   H1920     1.0  0.79637  0.15010  0.53029  1.0000
  H   H1921     1.0  0.81573  0.18683  0.56402  1.0000
  C   C1086     1.0  0.83766  0.15848  0.81269  1.0000
  C   C1087     1.0  0.82005  0.16507  0.80843  1.0000
  C   C1088     1.0  0.80126  0.15750  0.83162  1.0000
  C   C1089     1.0  0.79970  0.14307  0.85903  1.0000
  C   C1090     1.0  0.81713  0.13623  0.86298  1.0000
  C   C1091     1.0  0.83602  0.14398  0.84001  1.0000
  H   H1922     1.0  0.82103  0.17616  0.78750  1.0000
  H   H1923     1.0  0.78786  0.16290  0.82837  1.0000
  H   H1924     1.0  0.81622  0.12523  0.88399  1.0000
  H   H1925     1.0  0.84954  0.13880  0.84354  1.0000
  C   C1092     1.0  0.92468  0.33568  0.80995  1.0000
  C   C1093     1.0  0.94418  0.33951  0.79027  1.0000
  C   C1094     1.0  0.94238  0.32322  0.76522  1.0000
  C   C1095     1.0  0.92134  0.30252  0.76033  1.0000
  C   C1096     1.0  0.90202  0.29828  0.78072  1.0000
  C   C1097     1.0  0.90360  0.31500  0.80503  1.0000
  H   H1926     1.0  0.96048  0.35534  0.79369  1.0000
  H   H1927     1.0  0.95734  0.32677  0.74931  1.0000
  H   H1928     1.0  0.88564  0.28275  0.77654  1.0000
  H   H1929     1.0  0.88835  0.31209  0.81981  1.0000
  H   H1930     1.0  0.81628  0.10102  0.76623  1.0000
  C   C1098     1.0  0.93952  0.37935  0.72069  1.0000
  C   C1099     1.0  0.98012  0.47199  0.78234  1.0000
  H   H1931     1.0  0.76572  0.09863  0.83945  1.0000
  H   H1932     1.0  0.82518  0.19258  0.94419  1.0000
  C   C1100     1.0  0.90920  0.23193  0.83460  1.0000
  H   H1933     1.0  0.77096  0.05235  0.76534  1.0000
  H   H1934     1.0  0.77125  0.05083  0.85789  1.0000
  H   H1935     1.0  0.81635  0.24000  0.80229  1.0000
  H   H1936     1.0  0.97017  0.46014  0.80242  1.0000
  C   C1101     1.0  0.96377  0.22830  0.63392  1.0000
  Fe  Fe126     1.0  0.98162  0.42411  0.91264  1.0000
  H   H1937     1.0  0.86864  0.17280  0.99611  1.0000
  H   H1938     1.0  0.84489  0.13775  0.96114  1.0000
  H   H1939     1.0  0.93536  0.45165  0.86800  1.0000
  C   C1102     1.0  0.83284  0.23873  0.79987  1.0000
  H   H1940     1.0  0.89427  0.29280  0.90806  1.0000
  S   S251      1.0  0.74180  0.05452  0.99314  1.0000
  H   H1941     1.0  0.97289  0.40583  0.76233  1.0000
  C   C1103     1.0  0.80104  0.09977  0.75238  1.0000
  H   H1942     1.0  0.91644  0.19771  0.51801  1.0000
  H   H1943     1.0  0.80608  0.09619  0.82192  1.0000
  H   H1944     1.0  0.95827  0.48319  0.92875  1.0000
  H   H1945     1.0  0.92035  0.28966  0.89982  1.0000
  H   H1946     1.0  0.97318  0.36405  0.50407  1.0000
  H   H1947     1.0  0.74663  0.05764  0.76314  1.0000
  H   H1948     1.0  0.78445  0.17993  0.61961  1.0000
  C   C1104     1.0  0.96062  0.24695  0.62128  1.0000
  H   H1949     1.0  0.92428  0.46868  0.89160  1.0000
  H   H1950     1.0  0.82346  0.08387  0.86898  1.0000
  C   C1105     1.0  0.83827  0.23099  0.83321  1.0000
  H   H1951     1.0  0.94560  0.24898  0.62913  1.0000
  H   H1952     1.0  0.87376  0.24249  0.81569  1.0000
  H   H1953     1.0  0.90214  0.37085  0.72203  1.0000
  H   H1954     1.0  0.93013  0.21488  0.84923  1.0000
  C   C1106     1.0  0.84677  0.13586  0.98836  1.0000
  C   C1107     1.0  0.96607  0.46259  0.50475  1.0000
  H   H1955     1.0  0.94832  0.17162  0.52776  1.0000
  H   H1956     1.0  0.79559  0.12070  0.71375  1.0000
  H   H1957     1.0  0.90529  0.14620  0.53336  1.0000
  C   C1108     1.0  0.75543  0.08231  0.82489  1.0000
  H   H1958     1.0  0.82291  0.21398  0.84012  1.0000
  H   H1959     1.0  0.95123  0.47680  0.76478  1.0000
  H   H1960     1.0  0.82328  0.16642  0.92386  1.0000
  C   C1109     1.0  0.74747  0.15508  0.62501  1.0000
  Fe  Fe127     1.0  0.75544  0.05482  0.94114  1.0000
  H   H1961     1.0  0.81710  0.13792  0.74444  1.0000
  H   H1962     1.0  0.92685  0.19064  0.55464  1.0000
  H   H1963     1.0  0.91040  0.39868  0.82846  1.0000
  H   H1964     1.0  0.73449  0.14901  0.64592  1.0000
  H   H1965     1.0  0.81083  0.05336  0.85524  1.0000
  C   C1110     1.0  0.89222  0.27108  0.86462  1.0000
  H   H1966     1.0  0.84019  0.24430  0.85248  1.0000
  H   H1967     1.0  0.85609  0.21181  0.81463  1.0000
  H   H1968     1.0  0.90432  0.27138  0.84458  1.0000
  N   N62       1.0  0.87010  0.22483  0.86355  1.0000
  C   C1111     1.0  0.75853  0.05571  0.78117  1.0000
  H   H1969     1.0  0.77697  0.16234  0.65741  1.0000
  H   H1970     1.0  0.87868  0.27446  0.85276  1.0000
  H   H1971     1.0  0.74676  0.10477  0.55652  1.0000
  C   C1112     1.0  0.88057  0.24727  0.88399  1.0000
  C   C1113     1.0  0.90592  0.29169  0.88818  1.0000
  H   H1972     1.0  0.88390  0.15638  0.98446  1.0000
  S   S252      1.0  0.97370  0.38612  0.90632  1.0000
  C   C1114     1.0  0.91189  0.18354  0.53713  1.0000
  C   C1115     1.0  0.91419  0.36616  0.70770  1.0000
  H   H1973     1.0  0.90409  0.23662  0.81059  1.0000
  H   H1974     1.0  0.75561  0.09319  0.60923  1.0000
  H   H1975     1.0  0.90276  0.33412  0.73714  1.0000
  C   C1116     1.0  0.96217  0.44375  0.68893  1.0000
  C   C1117     1.0  0.97349  0.41534  0.73883  1.0000
  C   C1118     1.0  0.88777  0.21605  0.85674  1.0000
  C   C1119     1.0  0.73509  0.08499  0.80907  1.0000
  C   C1120     1.0  0.91487  0.40839  0.80426  1.0000
  H   H1976     1.0  0.78878  0.11569  0.79057  1.0000
  H   H1977     1.0  0.97361  0.27668  0.58746  1.0000
  H   H1978     1.0  0.95032  0.37500  0.70288  1.0000
  H   H1979     1.0  0.75615  0.02786  0.81525  1.0000
  H   H1980     1.0  0.88719  0.33031  0.69895  1.0000
  C   C1121     1.0  0.74822  0.13355  0.60834  1.0000
  H   H1981     1.0  0.90581  0.25058  0.54628  1.0000
  H   H1982     1.0  0.94043  0.37123  0.74481  1.0000
  H   H1983     1.0  0.94377  0.40141  0.79520  1.0000
  H   H1984     1.0  0.76432  0.14015  0.59241  1.0000
  C   C1122     1.0  0.78150  0.09867  0.77661  1.0000
  C   C1123     1.0  0.85676  0.19797  0.91661  1.0000
  H   H1985     1.0  0.91330  0.20296  0.81178  1.0000
  H   H1986     1.0  0.94360  0.43121  0.75317  1.0000
  H   H1987     1.0  0.74768  0.06809  0.84395  1.0000
  N   N63       1.0  0.94944  0.40574  0.72429  1.0000
  C   C1124     1.0  0.86049  0.22760  0.83063  1.0000
  C   C1125     1.0  0.93505  0.45934  0.89286  1.0000
  H   H1988     1.0  0.84087  0.18976  0.86808  1.0000
  C   C1126     1.0  0.92377  0.21939  0.82611  1.0000
  H   H1989     1.0  0.94948  0.44776  0.51141  1.0000
  H   H1990     1.0  0.91640  0.33358  0.69749  1.0000
  H   H1991     1.0  0.86704  0.24837  0.90047  1.0000
  C   C1127     1.0  0.79151  0.07792  0.81960  1.0000
  C   C1128     1.0  0.86249  0.16802  0.50460  1.0000
  N   N64       1.0  0.88967  0.17901  0.55576  1.0000
  H   H1992     1.0  0.73849  0.05009  0.60654  1.0000
  C   C1129     1.0  0.88995  0.17133  0.59137  1.0000
  C   C1130     1.0  0.88795  0.20180  0.55746  1.0000
  H   H1993     1.0  0.97342  0.33204  0.94084  1.0000
  H   H1994     1.0  0.91654  0.37980  0.77840  1.0000
  H   H1995     1.0  0.79451  0.08393  0.73616  1.0000
  C   C1131     1.0  0.90835  0.22286  0.57482  1.0000
  C   C1132     1.0  0.89036  0.14752  0.59627  1.0000
  C   C1133     1.0  0.88741  0.14053  0.63321  1.0000
  C   C1134     1.0  0.92801  0.39901  0.78175  1.0000
  H   H1996     1.0  0.98038  0.45169  0.69778  1.0000
  C   C1135     1.0  0.90552  0.24525  0.57274  1.0000
  H   H1997     1.0  0.85246  0.15636  0.55548  1.0000
  H   H1998     1.0  0.83704  0.21180  0.89044  1.0000
  H   H1999     1.0  0.90567  0.18445  0.60451  1.0000
  H   H2000     1.0  0.87466  0.17056  0.60568  1.0000
  H   H2001     1.0  0.87138  0.19881  0.57039  1.0000
  H   H2002     1.0  0.97351  0.36430  0.97578  1.0000
  C   C1136     1.0  0.73355  0.00231  0.89347  1.0000
  H   H2003     1.0  0.74188  0.10174  0.79465  1.0000
  H   H2004     1.0  0.96580  0.48357  0.54739  1.0000
  H   H2005     1.0  0.74292  0.14004  0.54504  1.0000
  H   H2006     1.0  0.78353  0.08066  0.87253  1.0000
  H   H2007     1.0  0.91811  0.40910  0.73536  1.0000
  H   H2008     1.0  0.92543  0.22670  0.56312  1.0000
  H   H2009     1.0  0.90887  0.21912  0.60163  1.0000
  H   H2010     1.0  0.87617  0.13287  0.58276  1.0000
  H   H2011     1.0  0.90750  0.14925  0.58786  1.0000
  H   H2012     1.0  0.90139  0.15447  0.64821  1.0000
  H   H2013     1.0  0.87010  0.13767  0.64291  1.0000
  H   H2014     1.0  0.88854  0.12384  0.63623  1.0000
  H   H2015     1.0  0.73624  0.00385  0.51873  1.0000
  H   H2016     1.0  0.80399  0.06039  0.89625  1.0000
  C   C1137     1.0  0.86796  0.16078  0.53904  1.0000
  C   C1138     1.0  0.85021  0.20587  0.88353  1.0000
  H   H2017     1.0  0.92067  0.24828  0.84828  1.0000
  H   H2018     1.0  0.89367  0.24701  0.90145  1.0000
  Fe  Fe128     1.0  0.77132  0.09160  0.99827  1.0000
  H   H2019     1.0  0.88883  0.24235  0.58495  1.0000
  H   H2020     1.0  0.92009  0.25988  0.58592  1.0000
  H   H2021     1.0  0.84638  0.11854  0.99280  1.0000
  H   H2022     1.0  0.74309  0.16551  0.60708  1.0000
  C   C1139     1.0  0.93455  0.41202  0.74756  1.0000
  C   C1140     1.0  0.97528  0.48286  0.52525  1.0000
  C   C1141     1.0  0.95019  0.41634  0.69038  1.0000
  H   H2023     1.0  0.92682  0.44466  0.91127  1.0000
  S   S253      1.0  0.75647  0.02233  0.91889  1.0000
  H   H2024     1.0  0.87903  0.19824  0.84495  1.0000
  C   C1142     1.0  0.95977  0.47625  0.90385  1.0000
  C   C1143     1.0  0.77109  0.17182  0.63982  1.0000
  H   H2025     1.0  0.95231  0.45057  0.70453  1.0000
  H   H2026     1.0  0.83069  0.22568  0.78003  1.0000
  H   H2027     1.0  0.83998  0.17736  0.96127  1.0000
  N   N65       1.0  0.77143  0.07815  0.80094  1.0000
  C   C1144     1.0  0.83496  0.18267  0.93766  1.0000
  H   H2028     1.0  0.86844  0.14380  0.53579  1.0000
  C   C1145     1.0  0.80987  0.12142  0.72949  1.0000
  H   H2029     1.0  0.82402  0.12202  0.71276  1.0000
  C   C1146     1.0  0.90465  0.33943  0.71045  1.0000
  H   H2030     1.0  0.92588  0.42747  0.80942  1.0000
  H   H2031     1.0  0.93218  0.41031  0.68121  1.0000
  H   H2032     1.0  0.86575  0.18714  0.91121  1.0000
  H   H2033     1.0  0.74473  0.06214  0.56488  1.0000
  H   H2034     1.0  0.84698  0.25632  0.79239  1.0000
  H   H2035     1.0  0.91370  0.30856  0.87396  1.0000
  C   C1147     1.0  0.78668  0.06837  0.85601  1.0000
  H   H2036     1.0  0.76764  0.09861  0.76049  1.0000
  H   H2037     1.0  0.89514  0.21368  0.88047  1.0000
  H   H2038     1.0  0.97194  0.48763  0.85360  1.0000
  H   H2039     1.0  0.76975  0.18627  0.65362  1.0000
  H   H2040     1.0  0.75097  0.12378  0.62924  1.0000
  H   H2041     1.0  0.79901  0.06800  0.80520  1.0000
  C   C1148     1.0  0.97242  0.38086  0.50850  1.0000
  H   H2042     1.0  0.86832  0.21341  0.93189  1.0000
  C   C1149     1.0  0.91204  0.16241  0.51797  1.0000
  C   C1150     1.0  0.93670  0.16826  0.50605  1.0000
  H   H2043     1.0  0.97165  0.47223  0.65313  1.0000
  C   C1151     1.0  0.97665  0.26276  0.59779  1.0000
  H   H2044     1.0  0.95864  0.40985  0.67145  1.0000
  C   C1152     1.0  0.73713  0.08323  0.60143  1.0000
  S   S254      1.0  0.97116  0.43425  0.96257  1.0000
  H   H2045     1.0  0.94496  0.44619  0.64375  1.0000
  C   C1153     1.0  0.73359  0.05949  0.58749  1.0000
  C   C1154     1.0  0.74426  0.03269  0.80148  1.0000
  S   S255      1.0  0.73436  0.07022  0.91811  1.0000
  H   H2046     1.0  0.74150  0.00916  0.76006  1.0000
  H   H2047     1.0  0.97179  0.38328  0.53591  1.0000
  H   H2048     1.0  0.98003  0.43405  0.74648  1.0000
  H   H2049     1.0  0.96930  0.46581  0.90684  1.0000
  C   C1155     1.0  0.96290  0.45259  0.65330  1.0000
  H   H2050     1.0  0.85429  0.17978  0.50845  1.0000
  H   H2051     1.0  0.96960  0.32452  0.98474  1.0000
  H   H2052     1.0  0.98032  0.42228  0.54486  1.0000
  H   H2053     1.0  0.97286  0.44660  0.63644  1.0000
  C   C1156     1.0  0.98208  0.33633  0.96550  1.0000
  H   H2054     1.0  0.82887  0.13661  0.49935  1.0000
  H   H2055     1.0  0.98241  0.22650  0.71401  1.0000
  H   H2056     1.0  0.94740  0.39406  0.49963  1.0000
  Fe  Fe129     1.0  0.91884  0.67277  0.45056  1.0000
  S   S256      1.0  0.90116  0.63722  0.42635  1.0000
  S   S257      1.0  0.95834  0.69442  0.44376  1.0000
  H   H2057     1.0  0.74193  0.68522  0.38275  1.0000
  S   S258      1.0  0.85541  0.62479  0.47459  1.0000
  S   S259      1.0  0.86177  0.67705  0.05061  1.0000
  Fe  Fe130     1.0  0.88919  0.62279  0.47799  1.0000
  C   C1157     1.0  0.98269  0.73372  0.35860  1.0000
  Fe  Fe131     1.0  0.86917  0.64257  0.42464  1.0000
  S   S260      1.0  0.84719  0.62872  0.37780  1.0000
  H   H2058     1.0  0.94520  0.63201  0.43506  1.0000
  S   S261      1.0  0.88768  0.67954  0.44558  1.0000
  Fe  Fe132     1.0  0.75898  0.63931  0.18639  1.0000
  S   S262      1.0  0.77592  0.67601  0.20771  1.0000
  S   S263      1.0  0.77058  0.62473  0.14215  1.0000
  Fe  Fe133     1.0  0.76679  0.65756  0.25781  1.0000
  S   S264      1.0  0.78987  0.67228  0.30305  1.0000
  H   H2059     1.0  0.77314  0.60929  0.36915  1.0000
  S   S265      1.0  0.75227  0.62104  0.23644  1.0000
  H   H2060     1.0  0.94064  0.60997  0.46465  1.0000
  S   S266      1.0  0.96034  0.59206  0.11015  1.0000
  H   H2061     1.0  0.77891  0.61480  0.44540  1.0000
  H   H2062     1.0  0.85073  0.63289  0.16611  1.0000
  H   H2063     1.0  0.82034  0.70654  0.24874  1.0000
  S   S267      1.0  0.96994  0.53137  0.10683  1.0000
  H   H2064     1.0  0.82838  0.71088  0.20465  1.0000
  H   H2065     1.0  0.88612  0.64469  0.13199  1.0000
  H   H2066     1.0  0.79007  0.59058  0.22667  1.0000
  H   H2067     1.0  0.80808  0.59084  0.19122  1.0000
  H   H2068     1.0  0.75951  0.64985  0.36497  1.0000
  H   H2069     1.0  0.95413  0.58050  0.47059  1.0000
  C   C1158     1.0  0.93803  0.57765  0.04926  1.0000
  C   C1159     1.0  0.94441  0.59378  0.07564  1.0000
  C   C1160     1.0  0.93766  0.61175  0.07510  1.0000
  C   C1161     1.0  0.92438  0.61343  0.04871  1.0000
  H   H2070     1.0  0.82242  0.66642  0.25208  1.0000
  H   H2071     1.0  0.94305  0.56370  0.04944  1.0000
  H   H2072     1.0  0.94258  0.62433  0.09532  1.0000
  H   H2073     1.0  0.91910  0.62718  0.04877  1.0000
  C   C1162     1.0  0.83684  0.66190  0.07666  1.0000
  C   C1163     1.0  0.83297  0.67401  0.10355  1.0000
  C   C1164     1.0  0.81300  0.66278  0.12434  1.0000
  C   C1165     1.0  0.79672  0.63932  0.11828  1.0000
  C   C1166     1.0  0.80074  0.62716  0.09168  1.0000
  C   C1167     1.0  0.82068  0.63838  0.07090  1.0000
  H   H2074     1.0  0.84541  0.69224  0.10809  1.0000
  H   H2075     1.0  0.81007  0.67235  0.14468  1.0000
  H   H2076     1.0  0.78825  0.60897  0.08689  1.0000
  H   H2077     1.0  0.82351  0.62887  0.05035  1.0000
  C   C1168     1.0  0.83137  0.64114  0.35745  1.0000
  C   C1169     1.0  0.81728  0.62906  0.33028  1.0000
  C   C1170     1.0  0.80431  0.63825  0.31346  1.0000
  C   C1171     1.0  0.80559  0.65979  0.32345  1.0000
  C   C1172     1.0  0.81966  0.67187  0.35058  1.0000
  C   C1173     1.0  0.83246  0.66258  0.36759  1.0000
  H   H2078     1.0  0.81626  0.61238  0.32243  1.0000
  H   H2079     1.0  0.79331  0.62867  0.29288  1.0000
  H   H2080     1.0  0.82073  0.68856  0.35848  1.0000
  H   H2081     1.0  0.84327  0.67205  0.38843  1.0000
  C   C1174     1.0  0.97418  0.70740  0.40640  1.0000
  C   C1175     1.0  0.76187  0.67314  0.09288  1.0000
  C   C1176     1.0  0.96763  0.72045  0.38501  1.0000
  H   H2082     1.0  0.96676  0.63780  0.14924  1.0000
  H   H2083     1.0  0.95149  0.72122  0.38975  1.0000
  C   C1177     1.0  0.73412  0.69683  0.00402  1.0000
  C   C1178     1.0  0.78070  0.60775  0.42068  1.0000
  C   C1179     1.0  0.74169  0.66796  0.03870  1.0000
  C   C1180     1.0  0.97891  0.69935  0.01392  1.0000
  H   H2084     1.0  0.77215  0.58815  0.42175  1.0000
  H   H2085     1.0  0.89219  0.65730  0.23856  1.0000
  H   H2086     1.0  0.94762  0.60943  0.38893  1.0000
  H   H2087     1.0  0.78167  0.59294  0.18471  1.0000
  H   H2088     1.0  0.79958  0.61422  0.41523  1.0000
  C   C1181     1.0  0.97083  0.64891  0.17212  1.0000
  H   H2089     1.0  0.79795  0.63161  0.21199  1.0000
  H   H2090     1.0  0.82357  0.67051  0.20807  1.0000
  H   H2091     1.0  0.87884  0.68248  0.19716  1.0000
  H   H2092     1.0  0.87489  0.66543  0.12680  1.0000
  H   H2093     1.0  0.90014  0.67299  0.15249  1.0000
  H   H2094     1.0  0.84619  0.73234  0.23496  1.0000
  H   H2095     1.0  0.73493  0.58793  0.40308  1.0000
  H   H2096     1.0  0.85677  0.70406  0.26045  1.0000
  C   C1182     1.0  0.83469  0.67308  0.23022  1.0000
  H   H2097     1.0  0.85258  0.67171  0.17480  1.0000
  C   C1183     1.0  0.94389  0.60029  0.41356  1.0000
  C   C1184     1.0  0.73330  0.57619  0.29903  1.0000
  H   H2098     1.0  0.78985  0.70887  0.07948  1.0000
  C   C1185     1.0  0.77348  0.70043  0.09450  1.0000
  C   C1186     1.0  0.73487  0.60764  0.33957  1.0000
  H   H2099     1.0  0.75197  0.58717  0.29199  1.0000
  C   C1187     1.0  0.86420  0.66509  0.25576  1.0000
  C   C1188     1.0  0.92462  0.57924  0.02295  1.0000
  H   H2100     1.0  0.86434  0.70759  0.21643  1.0000
  H   H2101     1.0  0.97924  0.65318  0.24147  1.0000
  C   C1189     1.0  0.74138  0.64132  0.37543  1.0000
  H   H2102     1.0  0.98263  0.65222  0.40452  1.0000
  C   C1190     1.0  0.96795  0.59406  0.48614  1.0000
  H   H2103     1.0  0.95405  0.61345  0.23618  1.0000
  C   C1191     1.0  0.83093  0.63327  0.22768  1.0000
  C   C1192     1.0  0.98204  0.65183  0.47264  1.0000
  H   H2104     1.0  0.93821  0.62184  0.19402  1.0000
  C   C1193     1.0  0.93094  0.64703  0.16912  1.0000
  H   H2105     1.0  0.94908  0.65028  0.21454  1.0000
  H   H2106     1.0  0.86772  0.63222  0.25781  1.0000
  C   C1194     1.0  0.81029  0.62514  0.20331  1.0000
  H   H2107     1.0  0.98076  0.66909  0.03353  1.0000
  H   H2108     1.0  0.85387  0.66224  0.27951  1.0000
  H   H2109     1.0  0.74505  0.66719  0.10664  1.0000
  H   H2110     1.0  0.90210  0.64763  0.29352  1.0000
  C   C1195     1.0  0.86702  0.64771  0.17540  1.0000
  H   H2111     1.0  0.87881  0.65125  0.31338  1.0000
  C   C1196     1.0  0.84963  0.70017  0.23479  1.0000
  C   C1197     1.0  0.88305  0.65846  0.14490  1.0000
  H   H2112     1.0  0.97190  0.60969  0.17775  1.0000
  H   H2113     1.0  0.95995  0.69259  0.01888  1.0000
  H   H2114     1.0  0.95366  0.58994  0.41450  1.0000
  H   H2115     1.0  0.91351  0.57227  0.43849  1.0000
  H   H2116     1.0  0.91396  0.64100  0.18250  1.0000
  H   H2117     1.0  0.91306  0.57086  0.39351  1.0000
  C   C1198     1.0  0.86187  0.66639  0.19350  1.0000
  H   H2118     1.0  0.79290  0.70435  0.14014  1.0000
  H   H2119     1.0  0.74230  0.61439  0.42511  1.0000
  H   H2120     1.0  0.95069  0.57604  0.25686  1.0000
  H   H2121     1.0  0.76385  0.70121  0.14691  1.0000
  H   H2122     1.0  0.93864  0.66638  0.16478  1.0000
  N   N66       1.0  0.84819  0.65919  0.22622  1.0000
  H   H2123     1.0  0.83960  0.62209  0.22304  1.0000
  H   H2124     1.0  0.79371  0.66779  0.05880  1.0000
  C   C1199     1.0  0.91757  0.59699  0.02269  1.0000
  H   H2125     1.0  0.90733  0.59265  0.41469  1.0000
  H   H2126     1.0  0.75317  0.61867  0.33064  1.0000
  C   C1200     1.0  0.87871  0.65162  0.25875  1.0000
  C   C1201     1.0  0.77962  0.70908  0.13044  1.0000
  H   H2127     1.0  0.73362  0.83330  0.13423  1.0000
  H   H2128     1.0  0.77234  0.66707  0.10805  1.0000
  C   C1202     1.0  0.91785  0.58302  0.41523  1.0000
  C   C1203     1.0  0.78135  0.65650  0.00897  1.0000
  H   H2129     1.0  0.74309  0.64776  0.40166  1.0000
  C   C1204     1.0  0.98242  0.62097  0.19868  1.0000
  H   H2130     1.0  0.82325  0.62835  0.25335  1.0000
  H   H2131     1.0  0.91941  0.56646  0.00290  1.0000
  H   H2132     1.0  0.87726  0.68410  0.25545  1.0000
  C   C1205     1.0  0.83515  0.71317  0.23046  1.0000
  C   C1206     1.0  0.94710  0.64125  0.19019  1.0000
  C   C1207     1.0  0.89149  0.65713  0.29202  1.0000
  H   H2133     1.0  0.78690  0.72859  0.13124  1.0000
  C   C1208     1.0  0.78153  0.66996  0.04147  1.0000
  Fe  Fe134     1.0  0.87552  0.66127  0.49590  1.0000
  C   C1209     1.0  0.96029  0.58339  0.23297  1.0000
  H   H2134     1.0  0.87528  0.64014  0.19203  1.0000
  H   H2135     1.0  0.97516  0.57931  0.23126  1.0000
  H   H2136     1.0  0.75962  0.63055  0.07435  1.0000
  C   C1210     1.0  0.79678  0.59821  0.20148  1.0000
  H   H2137     1.0  0.76110  0.70668  0.08571  1.0000
  H   H2138     1.0  0.97789  0.74448  0.34296  1.0000
  H   H2139     1.0  0.79750  0.67587  0.48206  1.0000
  C   C1211     1.0  0.95118  0.61885  0.44206  1.0000
  H   H2140     1.0  0.97902  0.66541  0.45938  1.0000
  H   H2141     1.0  0.77980  0.63569  0.39257  1.0000
  H   H2142     1.0  0.79013  0.68909  0.03557  1.0000
  H   H2143     1.0  0.77901  0.63860  0.01535  1.0000
  C   C1212     1.0  0.77009  0.61612  0.39325  1.0000
  H   H2144     1.0  0.90332  0.67638  0.29439  1.0000
  C   C1213     1.0  0.74701  0.63565  0.06309  1.0000
  H   H2145     1.0  0.92766  0.63781  0.14465  1.0000
  H   H2146     1.0  0.81638  0.63219  0.17779  1.0000
  N   N67       1.0  0.75807  0.66216  0.05852  1.0000
  H   H2147     1.0  0.76558  0.70624  0.03080  1.0000
  C   C1214     1.0  0.96917  0.61009  0.23205  1.0000
  Fe  Fe135     1.0  0.73955  0.67223  0.20944  1.0000
  S   S268      1.0  0.89252  0.59016  0.49236  1.0000
  H   H2148     1.0  0.75807  0.68569  0.34503  1.0000
  H   H2149     1.0  0.73922  0.57609  0.35137  1.0000
  N   N68       1.0  0.97691  0.63128  0.44951  1.0000
  H   H2150     1.0  0.94828  0.57470  0.21194  1.0000
  S   S269      1.0  0.96951  0.50652  0.19842  1.0000
  C   C1215     1.0  0.75278  0.69075  0.01696  1.0000
  H   H2151     1.0  0.97733  0.66725  0.16263  1.0000
  H   H2152     1.0  0.97531  0.52950  0.28820  1.0000
  H   H2153     1.0  0.98113  0.61774  0.25343  1.0000
  C   C1216     1.0  0.74367  0.60748  0.40002  1.0000
  C   C1217     1.0  0.74037  0.67873  0.35663  1.0000
  H   H2154     1.0  0.81921  0.67117  0.00521  1.0000
  H   H2155     1.0  0.96817  0.62554  0.01299  1.0000
  S   S270      1.0  0.90810  0.66289  0.00727  1.0000
  Fe  Fe136     1.0  0.87260  0.66136  0.00638  1.0000
  Fe  Fe137     1.0  0.97949  0.56988  0.11434  1.0000
  H   H2156     1.0  0.74261  0.62662  0.03843  1.0000
  Fe  Fe138     1.0  0.91334  0.67836  0.95563  1.0000
  S   S271      1.0  0.89852  0.64344  0.93012  1.0000
  S   S272      1.0  0.94854  0.70900  0.94173  1.0000
  H   H2157     1.0  0.76513  0.66364  0.59096  1.0000
  C   C1218     1.0  0.95524  0.59408  0.72840  1.0000
  S   S273      1.0  0.86324  0.67690  0.53884  1.0000
  Fe  Fe139     1.0  0.89099  0.62777  0.98176  1.0000
  H   H2158     1.0  0.77642  0.69289  0.90740  1.0000
  Fe  Fe140     1.0  0.86389  0.64365  0.93417  1.0000
  S   S274      1.0  0.84149  0.63048  0.88756  1.0000
  H   H2159     1.0  0.73714  0.88363  0.88321  1.0000
  S   S275      1.0  0.87930  0.67997  0.95652  1.0000
  Fe  Fe141     1.0  0.76513  0.64194  0.68158  1.0000
  S   S276      1.0  0.78682  0.67855  0.70166  1.0000
  S   S277      1.0  0.77671  0.62479  0.63996  1.0000
  Fe  Fe142     1.0  0.77075  0.66238  0.75174  1.0000
  S   S278      1.0  0.78859  0.67446  0.80220  1.0000
  H   H2160     1.0  0.90331  0.67886  0.57474  1.0000
  S   S279      1.0  0.75062  0.62517  0.73232  1.0000
  Fe  Fe143     1.0  0.96942  0.56361  0.62003  1.0000
  S   S280      1.0  0.94757  0.58315  0.61826  1.0000
  C   C1219     1.0  0.91185  0.67164  0.59172  1.0000
  H   H2161     1.0  0.79636  0.70970  0.52899  1.0000
  H   H2162     1.0  0.96458  0.64364  0.77469  1.0000
  S   S281      1.0  0.96242  0.52558  0.61608  1.0000
  H   H2163     1.0  0.74707  0.68704  0.91817  1.0000
  H   H2164     1.0  0.97290  0.55020  0.97180  1.0000
  H   H2165     1.0  0.91681  0.62334  0.54583  1.0000
  H   H2166     1.0  0.93938  0.60251  0.88853  1.0000
  C   C1220     1.0  0.90920  0.58919  0.52632  1.0000
  C   C1221     1.0  0.91882  0.60767  0.54932  1.0000
  C   C1222     1.0  0.93097  0.60580  0.57702  1.0000
  C   C1223     1.0  0.93418  0.58572  0.58147  1.0000
  C   C1224     1.0  0.92517  0.56753  0.55794  1.0000
  S   S282      1.0  0.74078  0.67055  0.74558  1.0000
  H   H2167     1.0  0.92866  0.62255  0.87521  1.0000
  H   H2168     1.0  0.93792  0.61995  0.59510  1.0000
  H   H2169     1.0  0.92736  0.55189  0.56130  1.0000
  N   N69       1.0  0.85938  0.60861  0.60790  1.0000
  C   C1225     1.0  0.83919  0.66193  0.56680  1.0000
  C   C1226     1.0  0.83749  0.67357  0.59587  1.0000
  C   C1227     1.0  0.81853  0.66247  0.61853  1.0000
  C   C1228     1.0  0.80091  0.63963  0.61220  1.0000
  C   C1229     1.0  0.80270  0.62792  0.58326  1.0000
  C   C1230     1.0  0.82169  0.63900  0.56065  1.0000
  H   H2170     1.0  0.85094  0.69132  0.60089  1.0000
  H   H2171     1.0  0.81761  0.67156  0.64094  1.0000
  H   H2172     1.0  0.78921  0.61021  0.57819  1.0000
  H   H2173     1.0  0.82266  0.62991  0.53825  1.0000
  C   C1231     1.0  0.82722  0.64335  0.86421  1.0000
  C   C1232     1.0  0.81683  0.63279  0.83385  1.0000
  C   C1233     1.0  0.80517  0.64221  0.81439  1.0000
  C   C1234     1.0  0.80360  0.66224  0.82527  1.0000
  C   C1235     1.0  0.81412  0.67293  0.85553  1.0000
  C   C1236     1.0  0.82592  0.66358  0.87492  1.0000
  H   H2174     1.0  0.81775  0.61714  0.82537  1.0000
  H   H2175     1.0  0.79728  0.63389  0.79109  1.0000
  H   H2176     1.0  0.81303  0.68847  0.86411  1.0000
  H   H2177     1.0  0.83378  0.67185  0.89826  1.0000
  C   C1237     1.0  0.96535  0.70872  0.90656  1.0000
  H   H2178     1.0  0.94913  0.74300  0.76054  1.0000
  H   H2179     1.0  0.92262  0.66556  0.57666  1.0000
  C   C1238     1.0  0.97030  0.66191  0.98119  1.0000
  H   H2180     1.0  0.91452  0.73800  0.93624  1.0000
  H   H2181     1.0  0.75423  0.97214  0.94184  1.0000
  C   C1239     1.0  0.90290  0.73459  0.91452  1.0000
  H   H2182     1.0  0.73958  0.62303  0.57690  1.0000
  C   C1240     1.0  0.74663  0.96782  0.96752  1.0000
  C   C1241     1.0  0.84790  0.61528  0.63640  1.0000
  H   H2183     1.0  0.90515  0.55478  0.51298  1.0000
  H   H2184     1.0  0.81020  0.59460  0.62890  1.0000
  H   H2185     1.0  0.74703  0.75127  0.63920  1.0000
  C   C1242     1.0  0.93492  0.57338  0.71157  1.0000
  H   H2186     1.0  0.73906  0.58030  0.83074  1.0000
  H   H2187     1.0  0.88433  0.65865  0.62856  1.0000
  C   C1243     1.0  0.95155  0.66671  0.75750  1.0000
  H   H2188     1.0  0.82210  0.57904  0.65236  1.0000
  C   C1244     1.0  0.87616  0.63114  0.59011  1.0000
  C   C1245     1.0  0.85969  0.57196  0.63586  1.0000
  H   H2189     1.0  0.85221  0.57305  0.66057  1.0000
  H   H2190     1.0  0.93787  0.66083  0.77746  1.0000
  H   H2191     1.0  0.84560  0.55977  0.61943  1.0000
  H   H2192     1.0  0.80406  0.65869  0.96702  1.0000
  H   H2193     1.0  0.73804  0.93124  0.96329  1.0000
  H   H2194     1.0  0.79755  0.59132  0.68726  1.0000
  H   H2195     1.0  0.73832  0.97919  0.97369  1.0000
  H   H2196     1.0  0.73552  0.72105  0.50055  1.0000
  C   C1246     1.0  0.73298  0.65251  0.56379  1.0000
  H   H2197     1.0  0.94226  0.63121  0.74337  1.0000
  H   H2198     1.0  0.88563  0.60786  0.64013  1.0000
  C   C1247     1.0  0.95410  0.63632  0.91468  1.0000
  H   H2199     1.0  0.96681  0.58730  0.73884  1.0000
  H   H2200     1.0  0.88479  0.59595  0.60011  1.0000
  H   H2201     1.0  0.81898  0.55313  0.54253  1.0000
  H   H2202     1.0  0.83159  0.60265  0.57416  1.0000
  H   H2203     1.0  0.96444  0.73186  0.78676  1.0000
  C   C1248     1.0  0.82319  0.59659  0.64814  1.0000
  H   H2204     1.0  0.97502  0.59777  0.97960  1.0000
  N   N70       1.0  0.76776  0.69465  0.56502  1.0000
  C   C1249     1.0  0.73700  0.58918  0.80818  1.0000
  C   C1250     1.0  0.78083  0.69244  0.53457  1.0000
  H   H2205     1.0  0.88675  0.62752  0.57110  1.0000
  H   H2206     1.0  0.86048  0.57628  0.55865  1.0000
  H   H2207     1.0  0.88327  0.55857  0.61740  1.0000
  C   C1251     1.0  0.96803  0.64637  0.50598  1.0000
  C   C1252     1.0  0.80442  0.66918  0.98946  1.0000
  H   H2208     1.0  0.82062  0.57874  0.52089  1.0000
  H   H2209     1.0  0.81652  0.62183  0.67739  1.0000
  H   H2210     1.0  0.90322  0.64510  0.62915  1.0000
  H   H2211     1.0  0.94136  0.56613  0.69093  1.0000
  H   H2212     1.0  0.90529  0.75181  0.90471  1.0000
  C   C1253     1.0  0.87590  0.56097  0.64159  1.0000
  H   H2213     1.0  0.92356  0.68607  0.60840  1.0000
  S   S283      1.0  0.96744  0.50705  0.70741  1.0000
  H   H2214     1.0  0.94619  0.61629  0.96083  1.0000
  H   H2215     1.0  0.92250  0.57906  0.70131  1.0000
  H   H2216     1.0  0.91868  0.60715  0.91447  1.0000
  H   H2217     1.0  0.94796  0.60002  0.74942  1.0000
  C   C1254     1.0  0.85070  0.58593  0.55164  1.0000
  H   H2218     1.0  0.84546  0.63084  0.62917  1.0000
  Fe  Fe144     1.0  0.75465  0.68302  0.69402  1.0000
  H   H2219     1.0  0.76949  0.74189  0.55887  1.0000
  H   H2220     1.0  0.93915  0.67623  0.88618  1.0000
  C   C1255     1.0  0.87339  0.59695  0.62051  1.0000
  H   H2221     1.0  0.85946  0.62100  0.65850  1.0000
  H   H2222     1.0  0.86231  0.60160  0.53649  1.0000
  S   S284      1.0  0.75518  0.71620  0.67293  1.0000
  H   H2223     1.0  0.73742  0.65238  0.53691  1.0000
  H   H2224     1.0  0.82728  0.60504  0.70136  1.0000
  H   H2225     1.0  0.88455  0.72402  0.92329  1.0000
  C   C1256     1.0  0.81580  0.60423  0.68055  1.0000
  H   H2226     1.0  0.81025  0.66129  0.50626  1.0000
  C   C1257     1.0  0.76171  0.72851  0.53881  1.0000
  H   H2227     1.0  0.86640  0.63852  0.57586  1.0000
  H   H2228     1.0  0.89051  0.57233  0.65806  1.0000
  H   H2229     1.0  0.96833  0.65566  0.69945  1.0000
  H   H2230     1.0  0.96849  0.61543  0.93532  1.0000
  C   C1258     1.0  0.91251  0.56917  0.53068  1.0000
  N   N71       1.0  0.89639  0.70123  0.82954  1.0000
  C   C1259     1.0  0.87663  0.69420  0.80529  1.0000
  C   C1260     1.0  0.89643  0.67939  0.84402  1.0000
  C   C1261     1.0  0.89205  0.71450  0.85789  1.0000
  C   C1262     1.0  0.91983  0.71742  0.81386  1.0000
  C   C1263     1.0  0.92712  0.70821  0.78241  1.0000
  C   C1264     1.0  0.87295  0.71454  0.79037  1.0000
  C   C1265     1.0  0.90916  0.72134  0.88757  1.0000
  C   C1266     1.0  0.88865  0.65748  0.82081  1.0000
  C   C1267     1.0  0.89509  0.63922  0.83515  1.0000
  C   C1268     1.0  0.95644  0.69075  0.88270  1.0000
  C   C1269     1.0  0.85468  0.70542  0.76294  1.0000
  H   H2231     1.0  0.86600  0.54338  0.65364  1.0000
  H   H2232     1.0  0.85988  0.68174  0.81780  1.0000
  H   H2233     1.0  0.87865  0.68422  0.78385  1.0000
  H   H2234     1.0  0.91396  0.68388  0.85375  1.0000
  H   H2235     1.0  0.88442  0.67280  0.86621  1.0000
  H   H2236     1.0  0.87401  0.70393  0.86829  1.0000
  H   H2237     1.0  0.89308  0.73137  0.84877  1.0000
  H   H2238     1.0  0.92096  0.73491  0.80786  1.0000
  H   H2239     1.0  0.93399  0.72130  0.83200  1.0000
  H   H2240     1.0  0.91402  0.70321  0.76245  1.0000
  H   H2241     1.0  0.92981  0.69294  0.78928  1.0000
  H   H2242     1.0  0.86646  0.72252  0.80994  1.0000
  H   H2243     1.0  0.88935  0.72848  0.77922  1.0000
  H   H2244     1.0  0.92737  0.73318  0.87949  1.0000
  H   H2245     1.0  0.90875  0.70547  0.89922  1.0000
  H   H2246     1.0  0.86937  0.64882  0.81816  1.0000
  H   H2247     1.0  0.89644  0.66206  0.79543  1.0000
  H   H2248     1.0  0.88609  0.63259  0.85961  1.0000
  H   H2249     1.0  0.88942  0.62395  0.81790  1.0000
  H   H2250     1.0  0.91424  0.64699  0.83837  1.0000
  C   C1270     1.0  0.83076  0.56973  0.52916  1.0000
  H   H2251     1.0  0.96802  0.67261  0.96123  1.0000
  C   C1271     1.0  0.95042  0.72695  0.76805  1.0000
  H   H2252     1.0  0.83786  0.69129  0.77285  1.0000
  H   H2253     1.0  0.85160  0.72005  0.75362  1.0000
  H   H2254     1.0  0.86070  0.69833  0.74160  1.0000
  H   H2255     1.0  0.82789  0.57684  0.59467  1.0000
  H   H2256     1.0  0.96276  0.67787  0.83564  1.0000
  C   C1272     1.0  0.93400  0.61581  0.89721  1.0000
  C   C1273     1.0  0.74330  0.73327  0.52188  1.0000
  H   H2257     1.0  0.76693  0.65442  0.99247  1.0000
  C   C1274     1.0  0.78429  0.71270  0.58912  1.0000
  C   C1275     1.0  0.96990  0.69167  0.85421  1.0000
  H   H2258     1.0  0.74239  0.71282  0.98790  1.0000
  C   C1276     1.0  0.78919  0.67325  0.53561  1.0000
  C   C1277     1.0  0.96201  0.62755  0.94551  1.0000
  C   C1278     1.0  0.95831  0.64715  0.75080  1.0000
  C   C1279     1.0  0.80193  0.70659  0.60660  1.0000
  C   C1280     1.0  0.81613  0.72546  0.63220  1.0000
  C   C1281     1.0  0.75827  0.67869  0.91145  1.0000
  H   H2259     1.0  0.94789  0.64921  0.92175  1.0000
  H   H2260     1.0  0.77415  0.65533  0.53393  1.0000
  H   H2261     1.0  0.96716  0.56695  0.51943  1.0000
  C   C1282     1.0  0.96932  0.61430  0.70310  1.0000
  H   H2262     1.0  0.79502  0.72986  0.57626  1.0000
  H   H2263     1.0  0.77415  0.71636  0.60898  1.0000
  C   C1283     1.0  0.84134  0.59335  0.58300  1.0000
  H   H2264     1.0  0.94460  0.67078  0.73461  1.0000
  H   H2265     1.0  0.76215  0.65706  0.87367  1.0000
  H   H2266     1.0  0.75145  0.75169  0.51227  1.0000
  H   H2267     1.0  0.92550  0.55905  0.73010  1.0000
  H   H2268     1.0  0.79832  0.67385  0.55892  1.0000
  H   H2269     1.0  0.95664  0.61689  0.68736  1.0000
  H   H2270     1.0  0.95539  0.71985  0.74565  1.0000
  S   S285      1.0  0.90832  0.65788  0.50265  1.0000
  N   N72       1.0  0.98006  0.64622  0.96733  1.0000
  H   H2271     1.0  0.79303  0.68961  0.62032  1.0000
  H   H2272     1.0  0.81453  0.70598  0.58804  1.0000
  H   H2273     1.0  0.82877  0.72072  0.64414  1.0000
  H   H2274     1.0  0.82599  0.74298  0.61994  1.0000
  H   H2275     1.0  0.80452  0.72663  0.65209  1.0000
  H   H2276     1.0  0.75434  0.60352  0.80035  1.0000
  C   C1284     1.0  0.89362  0.65131  0.61266  1.0000
  H   H2277     1.0  0.74620  0.63250  0.83238  1.0000
  S   S286      1.0  0.73403  0.64750  0.67115  1.0000
  C   C1285     1.0  0.75387  0.67153  0.58326  1.0000
  H   H2278     1.0  0.96137  0.50537  0.87408  1.0000
  S   S287      1.0  0.90052  0.59810  0.98926  1.0000
  H   H2279     1.0  0.73412  0.61072  0.86461  1.0000
  S   S288      1.0  0.85481  0.62479  0.98413  1.0000
  C   C1286     1.0  0.73494  0.98280  0.87925  1.0000
  C   C1287     1.0  0.75076  0.70326  0.55398  1.0000
  H   H2280     1.0  0.76993  0.68845  0.51184  1.0000
  C   C1288     1.0  0.80575  0.67607  0.50626  1.0000
  H   H2281     1.0  0.96399  0.52267  0.92417  1.0000
  H   H2282     1.0  0.80735  0.68690  0.98110  1.0000
  H   H2283     1.0  0.75080  0.67631  0.85915  1.0000
  H   H2284     1.0  0.76107  0.97198  0.98518  1.0000
  H   H2285     1.0  0.97763  0.60674  0.68558  1.0000
  H   H2286     1.0  0.96863  0.64439  0.89614  1.0000
  H   H2287     1.0  0.74667  0.67465  0.60721  1.0000
  H   H2288     1.0  0.83805  0.56512  0.50660  1.0000
  C   C1289     1.0  0.74976  0.66412  0.87950  1.0000
  C   C1290     1.0  0.98251  0.53490  0.92937  1.0000
  H   H2289     1.0  0.95231  0.65092  0.99153  1.0000
  H   H2290     1.0  0.75822  0.66738  0.93249  1.0000
  H   H2291     1.0  0.96878  0.68074  0.51083  1.0000
  H   H2292     1.0  0.77548  0.73113  0.51995  1.0000
  H   H2293     1.0  0.76203  0.68823  0.99491  1.0000
  H   H2294     1.0  0.95918  0.59976  0.50527  1.0000
  H   H2295     1.0  0.97264  0.63529  0.52230  1.0000
  H   H2296     1.0  0.96350  0.66444  0.54932  1.0000
  H   H2297     1.0  0.75018  0.98044  0.88350  1.0000
  C   C1291     1.0  0.97365  0.66900  0.52542  1.0000
  H   H2298     1.0  0.96688  0.68300  0.76615  1.0000
  C   C1292     1.0  0.97235  0.49641  0.87788  1.0000
  C   C1293     1.0  0.97696  0.65422  0.72251  1.0000
  H   H2299     1.0  0.73873  0.69117  0.53495  1.0000
  H   H2300     1.0  0.82222  0.69285  0.50854  1.0000
  H   H2301     1.0  0.73939  0.70296  0.57539  1.0000
  H   H2302     1.0  0.97762  0.52542  0.98233  1.0000
  C   C1294     1.0  0.98210  0.49671  0.73452  1.0000
  H   H2303     1.0  0.94904  0.63764  0.50152  1.0000
  C   C1295     1.0  0.98013  0.58196  0.50424  1.0000
  C   C1296     1.0  0.73301  0.73412  0.63285  1.0000
  H   H2304     1.0  0.73344  0.91535  0.91349  1.0000
