data_image0
_chemical_formula_structural       H5CH4C3HC3SHCH3CH4NC2HC4H6CH2C2HSH6CNCHSH2CH2CH6CH2CHC2H2CH2CNH3C3H2CH2CHC2H2CHNC2H2CHC2H3C2H3CHCH3CHCH3CH5CH6CH2CHCH6C3HSH5CSCH3C2H2C2H4C3H2C2H3CH4C2H2SH2C2HNHCH3FeSHFeH2FeHFeHSHS2FeSCFeHFeHC2HCHCHCSHCH4SH3SHCH2CH3C3HNC9H2CH16CH2C2H2CFeH2CH4CSCHC2HSH2CH2CHCHC2H2NCH2SHC3HCSHSHCH2C2H2FeCHFeSHFeSHSHC6H4FeSFeS2FeHFeSHSH6C5HNC7H17CH3SH4C3H3CHCHCH3CH9CH2CHCHCH4SCHCH2FeHC3H2CHCNC3H2S2HCH2SH2C2H2CHCSFeC2FeC2FeCHSH2FeSHFeSHFeSFeS2C2HC3FeH4C4H3C2H3SN2H2CH13SCH3C2H2C2SNHCHSC3HCHCH13SCH4CH2C2H2C2H6CHSCH3CHNHSCHC2HSC4H6C2HSC2HC2HCSCH2CH3CFeS2FeHFeHSHCFeSFeS2FeSFeHS2HCHCH5C6H8CHSCHC2HSHCH3C2H2C5H11NC11H20CH2SC2HSH2CH4C2H3C3HCNH3SCHCH3CH2CH4C2NHFeH3C2H2CSHC2H3CSH3SFeHFeS2Fe2S2H3C2HCNH3CFeHFeC2HFeHS2CH2CH4CFeHC3HC6H11CSH3SH2SCH2SHCH2C2H3C2NH2SH2CHCH4C2HSCSHC2H4CNC2HCH5CHCH4C2H2CSHC2H2CH4CH9CHFeHFeS2FeHFeCS2FeHFeH2SFeHSH4SC2H3C4NCH2CSHCH3C2SCH2SH7CH4CH3CNH2SHCHCH2C5SHCH2CH5CH2SHSH2C2HCHC2FeHCNH2SH2C2HCH2CH3C2HCSC5H2CHC2H4CH3CH2CH2C2H5CHNHCH3CHCH6C2H2C2H3C3HCH4CHCHCHC2HC2HCHCHCHCHCHCH3CHCH3NH3CH6CHC3H2C4H2CH4CHCHCH2C2H4CH2C2H2CH3CHCHCHCH5CH4CH5C2H3CHCH3CH4CH4CHCH6CH3CH2C2
_chemical_formula_sum              "H768 C432 S96 N24 Fe48"
_cell_length_a       37.9572
_cell_length_b       38.1031
_cell_length_c       41.4732
_cell_angle_alpha    90.1596
_cell_angle_beta     90.1456
_cell_angle_gamma    119.93

_space_group_name_H-M_alt    "P 1"
_space_group_IT_number       1

loop_
  _space_group_symop_operation_xyz
  'x, y, z'

loop_
  _atom_site_type_symbol
  _atom_site_label
  _atom_site_symmetry_multiplicity
  _atom_site_fract_x
  _atom_site_fract_y
  _atom_site_fract_z
  _atom_site_occupancy
  H   H1        1.0  0.10965  0.37547  0.09905  1.0000
  H   H2        1.0  0.06945  0.38029  0.20196  1.0000
  H   H3        1.0  0.13238  0.46290  0.22545  1.0000
  H   H4        1.0  0.36135  0.35495  0.16875  1.0000
  H   H5        1.0  0.35515  0.40535  0.13426  1.0000
  C   C1        1.0  0.05744  0.38954  0.18125  1.0000
  H   H6        1.0  0.15844  0.41841  0.08852  1.0000
  H   H7        1.0  0.40174  0.34569  0.20433  1.0000
  H   H8        1.0  0.12959  0.40570  0.15444  1.0000
  H   H9        1.0  0.44316  0.36410  0.10687  1.0000
  C   C2        1.0  0.42288  0.40079  0.15375  1.0000
  C   C3        1.0  0.12533  0.40728  0.09050  1.0000
  C   C4        1.0  0.46608  0.36219  0.12227  1.0000
  H   H10       1.0  0.17020  0.45334  0.14305  1.0000
  C   C5        1.0  0.38756  0.99648  0.13883  1.0000
  C   C6        1.0  0.43193  0.35247  0.26333  1.0000
  C   C7        1.0  0.08018  0.43625  0.17778  1.0000
  S   S1        1.0  0.39246  0.45127  0.27751  1.0000
  H   H11       1.0  0.47505  0.45644  0.21564  1.0000
  C   C8        1.0  0.14451  0.45375  0.20463  1.0000
  H   H12       1.0  0.06039  0.37485  0.15909  1.0000
  H   H13       1.0  0.11358  0.40803  0.06609  1.0000
  H   H14       1.0  0.42542  0.99902  0.25236  1.0000
  C   C9        1.0  0.42645  0.44230  0.30120  1.0000
  H   H15       1.0  0.40883  0.32041  0.25830  1.0000
  H   H16       1.0  0.37987  0.33973  0.13457  1.0000
  H   H17       1.0  0.07293  0.44827  0.19971  1.0000
  H   H18       1.0  0.41631  0.36873  0.27208  1.0000
  N   N1        1.0  0.12561  0.45668  0.17341  1.0000
  C   C10       1.0  0.35723  0.37974  0.12344  1.0000
  C   C11       1.0  0.37940  0.36569  0.14625  1.0000
  H   H19       1.0  0.32595  0.35444  0.11873  1.0000
  C   C12       1.0  0.20721  0.47293  0.23897  1.0000
  C   C13       1.0  0.42962  0.37598  0.20649  1.0000
  C   C14       1.0  0.44635  0.98777  0.24934  1.0000
  C   C15       1.0  0.13679  0.43664  0.14707  1.0000
  H   H20       1.0  0.13130  0.46470  0.10256  1.0000
  H   H21       1.0  0.41849  0.39614  0.21594  1.0000
  H   H22       1.0  0.08424  0.42151  0.11468  1.0000
  H   H23       1.0  0.42451  0.32681  0.16044  1.0000
  H   H24       1.0  0.06580  0.44374  0.15754  1.0000
  H   H25       1.0  0.40026  0.01971  0.11958  1.0000
  C   C16       1.0  0.11755  0.43410  0.11346  1.0000
  H   H26       1.0  0.40582  0.00903  0.16122  1.0000
  H   H27       1.0  0.43808  0.41447  0.13064  1.0000
  C   C17       1.0  0.45332  0.35627  0.15836  1.0000
  C   C18       1.0  0.46675  0.45623  0.29209  1.0000
  H   H28       1.0  0.41899  0.42469  0.16598  1.0000
  S   S2        1.0  0.07852  0.46985  0.04684  1.0000
  H   H29       1.0  0.45245  0.35320  0.28281  1.0000
  H   H30       1.0  0.37352  0.38969  0.10009  1.0000
  H   H31       1.0  0.46991  0.01832  0.02932  1.0000
  H   H32       1.0  0.19728  0.44051  0.24309  1.0000
  H   H33       1.0  0.13574  0.42170  0.20941  1.0000
  H   H34       1.0  0.44511  0.99061  0.10327  1.0000
  C   C19       1.0  0.01205  0.37311  0.18687  1.0000
  N   N2        1.0  0.44918  0.38999  0.17384  1.0000
  C   C20       1.0  0.45663  0.37261  0.23306  1.0000
  H   H35       1.0  0.47031  0.35443  0.22470  1.0000
  S   S3        1.0  0.37046  0.47070  0.18659  1.0000
  H   H36       1.0  0.35598  0.98950  0.14378  1.0000
  H   H37       1.0  0.43564  0.44304  0.06354  1.0000
  C   C21       1.0  0.19168  0.47847  0.20644  1.0000
  H   H38       1.0  0.20545  0.46847  0.18758  1.0000
  H   H39       1.0  0.44093  0.29785  0.11154  1.0000
  C   C22       1.0  0.46703  0.45851  0.07146  1.0000
  H   H40       1.0  0.47628  0.35177  0.17160  1.0000
  H   H41       1.0  0.02540  0.47205  0.18962  1.0000
  H   H42       1.0  0.25521  0.47200  0.06521  1.0000
  H   H43       1.0  0.99854  0.38122  0.16644  1.0000
  H   H44       1.0  0.00716  0.38569  0.20954  1.0000
  H   H45       1.0  0.47856  0.47445  0.27068  1.0000
  C   C23       1.0  0.47029  0.32670  0.10968  1.0000
  H   H46       1.0  0.99613  0.33960  0.18887  1.0000
  H   H47       1.0  0.29610  0.48361  0.11528  1.0000
  C   C24       1.0  0.47751  0.00587  0.22625  1.0000
  H   H48       1.0  0.48085  0.47858  0.17657  1.0000
  C   C25       1.0  0.47962  0.99955  0.01701  1.0000
  C   C26       1.0  0.00335  0.47844  0.17883  1.0000
  H   H49       1.0  0.47934  0.33168  0.08389  1.0000
  H   H50       1.0  0.98938  0.41939  0.10134  1.0000
  C   C27       1.0  0.47864  0.48488  0.09821  1.0000
  H   H51       1.0  0.19604  0.48434  0.25888  1.0000
  H   H52       1.0  0.45175  0.43092  0.98276  1.0000
  C   C28       1.0  0.02093  0.45310  0.39369  1.0000
  N   N3        1.0  0.42951  0.09685  0.50052  1.0000
  H   H53       1.0  0.33574  0.38591  0.60858  1.0000
  H   H54       1.0  0.41913  0.14122  0.59162  1.0000
  H   H55       1.0  0.28089  0.48012  0.57557  1.0000
  C   C29       1.0  0.47488  0.11405  0.50020  1.0000
  C   C30       1.0  0.27399  0.44826  0.57349  1.0000
  C   C31       1.0  0.98505  0.44646  0.37792  1.0000
  H   H56       1.0  0.42225  0.43737  0.41971  1.0000
  H   H57       1.0  0.36694  0.39739  0.51361  1.0000
  C   C32       1.0  0.38870  0.43742  0.55564  1.0000
  H   H58       1.0  0.39804  0.46393  0.61437  1.0000
  H   H59       1.0  0.41958  0.09903  0.44908  1.0000
  C   C33       1.0  0.30000  0.43992  0.59793  1.0000
  H   H60       1.0  0.42531  0.39116  0.36968  1.0000
  C   C34       1.0  0.43715  0.40948  0.34826  1.0000
  C   C35       1.0  0.47128  0.00283  0.36055  1.0000
  H   H61       1.0  0.36426  0.46920  0.64000  1.0000
  H   H62       1.0  0.42608  0.04058  0.51546  1.0000
  C   C36       1.0  0.42892  0.09853  0.56319  1.0000
  H   H63       1.0  0.21097  0.42979  0.56342  1.0000
  N   N4        1.0  0.34476  0.45884  0.59021  1.0000
  C   C37       1.0  0.41193  0.41894  0.32943  1.0000
  C   C38       1.0  0.40748  0.05095  0.50193  1.0000
  H   H64       1.0  0.02273  0.39865  0.46658  1.0000
  H   H65       1.0  0.42079  0.03669  0.45319  1.0000
  C   C39       1.0  0.39372  0.42653  0.52113  1.0000
  H   H66       1.0  0.28572  0.40643  0.59971  1.0000
  C   C40       1.0  0.98840  0.38789  0.51107  1.0000
  C   C41       1.0  0.40957  0.10849  0.59144  1.0000
  H   H67       1.0  0.38621  0.15593  0.43924  1.0000
  H   H68       1.0  0.34763  0.45754  0.53809  1.0000
  H   H69       1.0  0.31936  0.39886  0.64499  1.0000
  C   C42       1.0  0.22859  0.42150  0.58010  1.0000
  C   C43       1.0  0.02578  0.39386  0.49263  1.0000
  H   H70       1.0  0.32376  0.40908  0.55583  1.0000
  H   H71       1.0  0.41650  0.46586  0.56211  1.0000
  H   H72       1.0  0.46899  0.48440  0.37318  1.0000
  C   C44       1.0  0.41510  0.11115  0.47207  1.0000
  H   H73       1.0  0.40264  0.40535  0.63379  1.0000
  C   C45       1.0  0.39460  0.02725  0.46951  1.0000
  H   H74       1.0  0.37590  0.09032  0.58993  1.0000
  H   H75       1.0  0.02894  0.36655  0.49511  1.0000
  H   H76       1.0  0.38603  0.10247  0.53057  1.0000
  C   C46       1.0  0.41899  0.11198  0.53071  1.0000
  H   H77       1.0  0.46898  0.17158  0.46462  1.0000
  C   C47       1.0  0.03492  0.47681  0.42193  1.0000
  H   H78       1.0  0.37866  0.03921  0.51582  1.0000
  H   H79       1.0  0.43456  0.20169  0.43510  1.0000
  H   H80       1.0  0.41788  0.06557  0.56394  1.0000
  C   C48       1.0  0.44298  0.46006  0.43765  1.0000
  H   H81       1.0  0.38166  0.09891  0.47384  1.0000
  H   H82       1.0  0.21896  0.38907  0.57628  1.0000
  H   H83       1.0  0.42968  0.17256  0.48823  1.0000
  H   H84       1.0  0.38743  0.41351  0.57160  1.0000
  H   H85       1.0  0.29586  0.45038  0.62208  1.0000
  C   C49       1.0  0.41953  0.16821  0.43745  1.0000
  H   H86       1.0  0.37156  0.03225  0.45701  1.0000
  H   H87       1.0  0.05376  0.42032  0.50222  1.0000
  H   H88       1.0  0.43571  0.14563  0.53180  1.0000
  H   H89       1.0  0.46415  0.00415  0.47162  1.0000
  H   H90       1.0  0.39768  0.45083  0.50429  1.0000
  H   H91       1.0  0.41954  0.10135  0.61450  1.0000
  C   C50       1.0  0.34955  0.44054  0.55922  1.0000
  H   H92       1.0  0.46231  0.11488  0.56722  1.0000
  H   H93       1.0  0.38075  0.40772  0.33663  1.0000
  C   C51       1.0  0.43565  0.15777  0.46757  1.0000
  H   H94       1.0  0.42123  0.42333  0.51969  1.0000
  C   C52       1.0  0.36517  0.45175  0.61873  1.0000
  H   H95       1.0  0.40940  0.99046  0.36705  1.0000
  H   H96       1.0  0.03775  0.43941  0.38410  1.0000
  H   H97       1.0  0.00961  0.44889  0.52601  1.0000
  H   H98       1.0  0.99706  0.43258  0.64236  1.0000
  H   H99       1.0  0.27988  0.44266  0.54834  1.0000
  H   H100      1.0  0.42626  0.15589  0.41548  1.0000
  C   C53       1.0  0.34621  0.40694  0.62950  1.0000
  C   C54       1.0  0.98892  0.45604  0.64168  1.0000
  C   C55       1.0  0.47723  0.42287  0.33885  1.0000
  H   H101      1.0  0.99190  0.38086  0.53645  1.0000
  S   S4        1.0  0.07963  0.48324  0.44146  1.0000
  H   H102      1.0  0.44533  0.44366  0.45892  1.0000
  H   H103      1.0  0.22149  0.42599  0.60523  1.0000
  H   H104      1.0  0.43014  0.47920  0.44560  1.0000
  H   H105      1.0  0.47288  0.01714  0.33693  1.0000
  H   H106      1.0  0.99317  0.43987  0.48572  1.0000
  C   C56       1.0  0.98472  0.42655  0.51022  1.0000
  S   S5        1.0  0.48108  0.37389  0.45824  1.0000
  C   C57       1.0  0.37630  0.39983  0.64896  1.0000
  H   H107      1.0  0.98304  0.45972  0.76560  1.0000
  H   H108      1.0  0.38752  0.42029  0.67023  1.0000
  H   H109      1.0  0.39165  0.37115  0.74549  1.0000
  C   C58       1.0  0.47297  0.42988  0.75825  1.0000
  C   C59       1.0  0.01715  0.42989  0.75943  1.0000
  H   H110      1.0  0.37485  0.40615  0.73451  1.0000
  H   H111      1.0  0.39352  0.40748  0.77468  1.0000
  C   C60       1.0  0.44048  0.43324  0.73770  1.0000
  C   C61       1.0  0.46971  0.04079  0.88278  1.0000
  H   H112      1.0  0.39528  0.42512  0.84677  1.0000
  H   H113      1.0  0.98563  0.44727  0.72476  1.0000
  H   H114      1.0  0.44447  0.41493  0.87952  1.0000
  H   H115      1.0  0.03933  0.42819  0.74312  1.0000
  C   C62       1.0  0.45525  0.44121  0.86419  1.0000
  C   C63       1.0  0.45428  0.44557  0.95910  1.0000
  C   C64       1.0  0.45938  0.05509  0.94089  1.0000
  H   H116      1.0  0.46876  0.43641  0.78375  1.0000
  H   H117      1.0  0.47219  0.07983  0.82624  1.0000
  C   C65       1.0  0.99791  0.45609  0.92970  1.0000
  C   C66       1.0  0.39758  0.40257  0.74886  1.0000
  H   H118      1.0  0.43203  0.05719  0.93458  1.0000
  H   H119      1.0  0.46445  0.39740  0.75752  1.0000
  H   H120      1.0  0.42730  0.44919  0.95552  1.0000
  C   C67       1.0  0.42741  0.44703  0.84545  1.0000
  H   H121      1.0  0.36117  0.36803  0.65751  1.0000
  H   H122      1.0  0.22305  0.48258  0.65015  1.0000
  H   H123      1.0  0.44699  0.05042  0.87749  1.0000
  H   H124      1.0  0.44395  0.46381  0.73999  1.0000
  C   C68       1.0  0.44074  0.48043  0.82467  1.0000
  C   C69       1.0  0.46345  0.02559  0.91824  1.0000
  H   H125      1.0  0.45405  0.04218  0.79441  1.0000
  H   H126      1.0  0.04531  0.48279  0.69381  1.0000
  S   S6        1.0  0.01550  0.45500  0.96954  1.0000
  H   H127      1.0  0.44253  0.42726  0.71183  1.0000
  H   H128      1.0  0.03029  0.43875  0.78403  1.0000
  C   C70       1.0  0.00425  0.46012  0.74705  1.0000
  C   C71       1.0  0.48065  0.06218  0.80983  1.0000
  H   H129      1.0  0.45616  0.04426  0.96612  1.0000
  N   N5        1.0  0.46811  0.01202  0.85681  1.0000
  H   H130      1.0  0.43616  0.99543  0.92118  1.0000
  C   C72       1.0  0.42544  0.98644  0.84379  1.0000
  H   H131      1.0  0.41384  0.00577  0.83377  1.0000
  H   H132      1.0  0.99077  0.36600  0.77041  1.0000
  H   H133      1.0  0.45419  0.42526  0.93980  1.0000
  Fe  Fe1       1.0  0.35541  0.52091  0.18822  1.0000
  S   S7        1.0  0.41343  0.56610  0.16470  1.0000
  H   H134      1.0  0.41693  0.85985  0.07507  1.0000
  Fe  Fe2       1.0  0.40240  0.49316  0.23460  1.0000
  H   H135      1.0  0.42555  0.96911  0.98732  1.0000
  H   H136      1.0  0.24098  0.49025  0.23917  1.0000
  Fe  Fe3       1.0  0.43921  0.58142  0.21516  1.0000
  H   H137      1.0  0.98558  0.51540  0.11000  1.0000
  Fe  Fe4       1.0  0.43028  0.51698  0.16479  1.0000
  H   H138      1.0  0.41946  0.87025  0.12691  1.0000
  S   S8        1.0  0.38065  0.53828  0.23875  1.0000
  H   H139      1.0  0.26691  0.57831  0.02423  1.0000
  S   S9        1.0  0.05477  0.50401  0.12659  1.0000
  S   S10       1.0  0.06724  0.54863  0.03115  1.0000
  Fe  Fe5       1.0  0.14581  0.51093  0.03990  1.0000
  S   S11       1.0  0.14751  0.56036  0.06985  1.0000
  C   C73       1.0  0.42063  0.88537  0.05996  1.0000
  Fe  Fe6       1.0  0.07954  0.52093  0.07491  1.0000
  H   H140      1.0  0.22385  0.58285  0.01212  1.0000
  Fe  Fe7       1.0  0.13561  0.58277  0.02314  1.0000
  H   H141      1.0  0.39946  0.84838  0.01653  1.0000
  C   C74       1.0  0.39125  0.86751  0.03142  1.0000
  C   C75       1.0  0.47323  0.70858  0.26820  1.0000
  H   H142      1.0  0.45194  0.90083  0.05001  1.0000
  C   C76       1.0  0.27669  0.49675  0.11291  1.0000
  H   H143      1.0  0.24560  0.60871  0.06662  1.0000
  C   C77       1.0  0.41556  0.65681  0.31225  1.0000
  H   H144      1.0  0.33434  0.59144  0.29186  1.0000
  C   C78       1.0  0.13479  0.52660  0.18956  1.0000
  S   S12       1.0  0.46286  0.53725  0.21300  1.0000
  H   H145      1.0  0.44456  0.65868  0.16153  1.0000
  C   C79       1.0  0.24811  0.53566  0.13494  1.0000
  H   H146      1.0  0.13948  0.57154  0.15474  1.0000
  H   H147      1.0  0.25376  0.64966  0.04043  1.0000
  H   H148      1.0  0.36831  0.94666  0.10620  1.0000
  H   H149      1.0  0.45865  0.58108  0.30189  1.0000
  S   S13       1.0  0.19618  0.49484  0.04600  1.0000
  H   H150      1.0  0.20528  0.54202  0.10443  1.0000
  H   H151      1.0  0.14780  0.58849  0.19607  1.0000
  H   H152      1.0  0.39285  0.89191  0.01582  1.0000
  S   S14       1.0  0.29818  0.52455  0.17643  1.0000
  H   H153      1.0  0.41174  0.79167  0.21983  1.0000
  C   C80       1.0  0.14096  0.50015  0.16423  1.0000
  H   H154      1.0  0.25078  0.62184  0.14439  1.0000
  H   H155      1.0  0.28296  0.58097  0.28434  1.0000
  C   C81       1.0  0.27369  0.51910  0.13853  1.0000
  H   H156      1.0  0.42495  0.79347  0.26173  1.0000
  H   H157      1.0  0.41447  0.60832  0.28430  1.0000
  H   H158      1.0  0.46983  0.70653  0.18286  1.0000
  C   C82       1.0  0.25698  0.60003  0.01696  1.0000
  C   C83       1.0  0.43124  0.96640  0.12184  1.0000
  C   C84       1.0  0.40094  0.77628  0.24339  1.0000
  H   H159      1.0  0.42084  0.94194  0.06303  1.0000
  N   N6        1.0  0.34986  0.66452  0.21082  1.0000
  C   C85       1.0  0.35847  0.70727  0.21681  1.0000
  C   C86       1.0  0.31514  0.64287  0.18700  1.0000
  C   C87       1.0  0.33701  0.64243  0.24266  1.0000
  C   C88       1.0  0.38704  0.66343  0.19945  1.0000
  C   C89       1.0  0.40744  0.68715  0.16837  1.0000
  C   C90       1.0  0.39275  0.73276  0.24151  1.0000
  C   C91       1.0  0.32085  0.59611  0.24140  1.0000
  C   C92       1.0  0.31136  0.66872  0.15972  1.0000
  C   C93       1.0  0.28109  0.64210  0.13376  1.0000
  H   H160      1.0  0.37305  0.77684  0.25059  1.0000
  H   H161      1.0  0.17356  0.51525  0.15809  1.0000
  C   C94       1.0  0.22685  0.50579  0.08138  1.0000
  H   H162      1.0  0.33031  0.70656  0.22540  1.0000
  H   H163      1.0  0.36670  0.72510  0.19427  1.0000
  H   H164      1.0  0.31628  0.61682  0.17570  1.0000
  H   H165      1.0  0.28535  0.62922  0.19970  1.0000
  H   H166      1.0  0.31296  0.64697  0.25401  1.0000
  H   H167      1.0  0.36293  0.65507  0.26000  1.0000
  H   H168      1.0  0.41033  0.67414  0.21883  1.0000
  H   H169      1.0  0.37970  0.63175  0.19462  1.0000
  H   H170      1.0  0.41331  0.71865  0.16938  1.0000
  H   H171      1.0  0.38795  0.67121  0.14722  1.0000
  H   H172      1.0  0.38426  0.71988  0.26610  1.0000
  H   H173      1.0  0.42167  0.73432  0.23455  1.0000
  H   H174      1.0  0.34463  0.58981  0.23257  1.0000
  H   H175      1.0  0.29387  0.58027  0.22542  1.0000
  H   H176      1.0  0.30023  0.68840  0.16998  1.0000
  H   H177      1.0  0.34066  0.68851  0.14774  1.0000
  C   C95       1.0  0.25333  0.49011  0.08455  1.0000
  H   H178      1.0  0.27329  0.64929  0.98331  1.0000
  H   H179      1.0  0.37317  0.86624  0.19357  1.0000
  C   C96       1.0  0.46839  0.93998  0.26472  1.0000
  C   C97       1.0  0.38743  0.95796  0.12823  1.0000
  H   H180      1.0  0.46183  0.70541  0.13993  1.0000
  H   H181      1.0  0.41721  0.87670  0.21722  1.0000
  C   C98       1.0  0.41275  0.91578  0.07937  1.0000
  Fe  Fe8       1.0  0.06861  0.49861  0.00257  1.0000
  H   H182      1.0  0.40213  0.84147  0.18402  1.0000
  H   H183      1.0  0.43210  0.93264  0.17978  1.0000
  C   C99       1.0  0.45451  0.97158  0.99308  1.0000
  H   H184      1.0  0.37294  0.93542  0.14777  1.0000
  H   H185      1.0  0.41749  0.94145  0.28589  1.0000
  H   H186      1.0  0.10195  0.51515  0.19359  1.0000
  H   H187      1.0  0.29790  0.54440  0.27332  1.0000
  C   C100      1.0  0.45677  0.66648  0.26458  1.0000
  S   S15       1.0  0.13607  0.53424  0.99263  1.0000
  C   C101      1.0  0.43126  0.90510  0.17011  1.0000
  H   H188      1.0  0.47338  0.75709  0.29586  1.0000
  C   C102      1.0  0.22499  0.52925  0.10659  1.0000
  C   C103      1.0  0.40415  0.87011  0.19245  1.0000
  H   H189      1.0  0.31369  0.64084  0.99459  1.0000
  S   S16       1.0  0.47302  0.64743  0.23199  1.0000
  H   H190      1.0  0.29211  0.62349  0.12140  1.0000
  H   H191      1.0  0.44876  0.98048  0.14424  1.0000
  C   C104      1.0  0.15346  0.57032  0.17800  1.0000
  H   H192      1.0  0.18678  0.58396  0.17483  1.0000
  H   H193      1.0  0.46211  0.90874  0.17149  1.0000
  C   C105      1.0  0.44179  0.95511  0.26849  1.0000
  H   H194      1.0  0.27768  0.66149  0.11550  1.0000
  C   C106      1.0  0.44837  0.68951  0.16290  1.0000
  H   H195      1.0  0.29634  0.64393  0.05312  1.0000
  C   C107      1.0  0.00987  0.49453  0.14744  1.0000
  C   C108      1.0  0.42750  0.64069  0.28662  1.0000
  H   H196      1.0  0.14924  0.52708  0.21294  1.0000
  H   H197      1.0  0.38192  0.88317  0.13526  1.0000
  N   N7        1.0  0.43499  0.93042  0.11127  1.0000
  C   C109      1.0  0.26377  0.62747  0.04599  1.0000
  H   H198      1.0  0.25782  0.72172  0.00464  1.0000
  H   H199      1.0  0.37930  0.90102  0.08293  1.0000
  S   S17       1.0  0.18021  0.64987  0.01406  1.0000
  H   H200      1.0  0.35954  0.84846  0.03998  1.0000
  C   C110      1.0  0.30824  0.57724  0.27484  1.0000
  C   C111      1.0  0.46043  0.72469  0.29338  1.0000
  C   C112      1.0  0.41544  0.89587  0.13490  1.0000
  H   H201      1.0  0.24586  0.55324  0.15448  1.0000
  C   C113      1.0  0.47914  0.94295  0.10587  1.0000
  S   S18       1.0  0.46416  0.89853  0.28775  1.0000
  H   H202      1.0  0.12588  0.50177  0.14174  1.0000
  S   S19       1.0  0.44126  0.49313  0.11701  1.0000
  H   H203      1.0  0.20327  0.51135  0.20350  1.0000
  C   C114      1.0  0.48079  0.57038  0.30513  1.0000
  H   H204      1.0  0.46563  0.51496  0.98389  1.0000
  H   H205      1.0  0.46842  0.54056  0.29282  1.0000
  C   C115      1.0  0.28120  0.62508  0.98716  1.0000
  C   C116      1.0  0.43161  0.69881  0.31571  1.0000
  H   H206      1.0  0.03440  0.56848  0.31421  1.0000
  H   H207      1.0  0.39510  0.81351  0.47325  1.0000
  Fe  Fe9       1.0  0.41845  0.77784  0.35775  1.0000
  C   C117      1.0  0.02341  0.55671  0.33880  1.0000
  H   H208      1.0  0.32244  0.58796  0.57746  1.0000
  Fe  Fe10      1.0  0.44245  0.85211  0.40388  1.0000
  S   S20       1.0  0.40384  0.87113  0.37619  1.0000
  H   H209      1.0  0.16505  0.53421  0.40094  1.0000
  Fe  Fe11      1.0  0.35721  0.80398  0.37558  1.0000
  S   S21       1.0  0.28930  0.77564  0.38574  1.0000
  H   H210      1.0  0.15525  0.61420  0.35710  1.0000
  S   S22       1.0  0.39448  0.78581  0.40539  1.0000
  H   H211      1.0  0.34413  0.67074  0.47827  1.0000
  C   C118      1.0  0.21054  0.69931  0.47061  1.0000
  C   C119      1.0  0.22443  0.74091  0.46859  1.0000
  C   C120      1.0  0.25084  0.76452  0.44386  1.0000
  C   C121      1.0  0.26451  0.74723  0.42078  1.0000
  C   C122      1.0  0.25120  0.70558  0.42291  1.0000
  C   C123      1.0  0.22431  0.68169  0.44772  1.0000
  H   H212      1.0  0.25968  0.79619  0.44200  1.0000
  H   H213      1.0  0.26051  0.69152  0.40469  1.0000
  H   H214      1.0  0.21365  0.64959  0.44870  1.0000
  H   H215      1.0  0.32269  0.78911  0.51856  1.0000
  Fe  Fe12      1.0  0.10890  0.52003  0.48728  1.0000
  S   S23       1.0  0.08412  0.55544  0.51187  1.0000
  Fe  Fe13      1.0  0.18049  0.54876  0.53698  1.0000
  S   S24       1.0  0.15884  0.58529  0.56420  1.0000
  S   S25       1.0  0.24368  0.55851  0.54897  1.0000
  Fe  Fe14      1.0  0.09547  0.53161  0.55835  1.0000
  H   H216      1.0  0.07572  0.55307  0.35254  1.0000
  Fe  Fe15      1.0  0.15016  0.60494  0.51484  1.0000
  S   S26       1.0  0.17511  0.67118  0.50152  1.0000
  H   H217      1.0  0.34727  0.80987  0.46163  1.0000
  S   S27       1.0  0.17407  0.57063  0.48804  1.0000
  H   H218      1.0  0.39540  0.97432  0.48915  1.0000
  H   H219      1.0  0.21387  0.75491  0.48587  1.0000
  H   H220      1.0  0.35405  0.51561  0.60872  1.0000
  H   H221      1.0  0.37933  0.84599  0.49184  1.0000
  H   H222      1.0  0.01726  0.54668  0.60651  1.0000
  H   H223      1.0  0.14362  0.57879  0.42576  1.0000
  C   C124      1.0  0.23102  0.51730  0.60697  1.0000
  C   C125      1.0  0.38628  0.68278  0.57239  1.0000
  C   C126      1.0  0.25894  0.54662  0.58599  1.0000
  C   C127      1.0  0.30061  0.56559  0.59365  1.0000
  C   C128      1.0  0.31428  0.55554  0.62194  1.0000
  H   H224      1.0  0.41187  0.58589  0.60037  1.0000
  N   N8        1.0  0.31419  0.70661  0.52015  1.0000
  C   C129      1.0  0.29054  0.66642  0.50291  1.0000
  C   C130      1.0  0.28612  0.71127  0.54330  1.0000
  C   C131      1.0  0.32745  0.73980  0.49527  1.0000
  C   C132      1.0  0.31174  0.66060  0.47308  1.0000
  C   C133      1.0  0.26698  0.67926  0.57027  1.0000
  C   C134      1.0  0.23582  0.68510  0.58932  1.0000
  C   C135      1.0  0.29062  0.61633  0.46225  1.0000
  H   H225      1.0  0.26066  0.66187  0.49465  1.0000
  H   H226      1.0  0.28229  0.64070  0.51944  1.0000
  H   H227      1.0  0.30233  0.74085  0.55614  1.0000
  H   H228      1.0  0.26087  0.71149  0.52960  1.0000
  H   H229      1.0  0.30120  0.73463  0.47990  1.0000
  H   H230      1.0  0.31054  0.67861  0.45249  1.0000
  H   H231      1.0  0.25108  0.64797  0.56052  1.0000
  H   H232      1.0  0.29077  0.68270  0.58764  1.0000
  H   H233      1.0  0.25034  0.71563  0.60065  1.0000
  H   H234      1.0  0.15594  0.68202  0.33485  1.0000
  H   H235      1.0  0.21069  0.68143  0.57326  1.0000
  H   H236      1.0  0.37843  0.72509  0.52105  1.0000
  H   H237      1.0  0.29151  0.59684  0.48176  1.0000
  H   H238      1.0  0.25846  0.60572  0.45564  1.0000
  H   H239      1.0  0.04599  0.62113  0.41519  1.0000
  H   H240      1.0  0.17024  0.55760  0.36219  1.0000
  H   H241      1.0  0.38634  0.70028  0.59389  1.0000
  C   C136      1.0  0.17204  0.56284  0.38865  1.0000
  H   H242      1.0  0.00459  0.50095  0.54106  1.0000
  H   H243      1.0  0.08623  0.58552  0.42590  1.0000
  H   H244      1.0  0.03374  0.62912  0.47221  1.0000
  S   S28       1.0  0.41547  0.71699  0.34890  1.0000
  H   H245      1.0  0.06893  0.62917  0.36503  1.0000
  H   H246      1.0  0.45291  0.59357  0.57425  1.0000
  H   H247      1.0  0.41316  0.94967  0.34852  1.0000
  H   H248      1.0  0.39358  0.63654  0.32955  1.0000
  C   C137      1.0  0.35157  0.71142  0.53736  1.0000
  C   C138      1.0  0.00037  0.52021  0.62140  1.0000
  C   C139      1.0  0.42638  0.97371  0.36733  1.0000
  H   H249      1.0  0.08736  0.66676  0.43257  1.0000
  H   H250      1.0  0.34643  0.51013  0.56609  1.0000
  H   H251      1.0  0.35006  0.73925  0.47850  1.0000
  C   C140      1.0  0.36124  0.50378  0.58665  1.0000
  H   H252      1.0  0.32180  0.65381  0.56506  1.0000
  C   C141      1.0  0.40737  0.53043  0.58089  1.0000
  H   H253      1.0  0.45231  0.94399  0.43965  1.0000
  C   C142      1.0  0.46997  0.95174  0.46165  1.0000
  H   H254      1.0  0.20198  0.75597  0.37955  1.0000
  H   H255      1.0  0.41616  0.52198  0.55797  1.0000
  H   H256      1.0  0.08030  0.63075  0.48393  1.0000
  C   C143      1.0  0.07220  0.63322  0.43209  1.0000
  H   H257      1.0  0.12738  0.63104  0.44074  1.0000
  H   H258      1.0  0.00405  0.56890  0.34778  1.0000
  H   H259      1.0  0.03883  0.58497  0.46650  1.0000
  H   H260      1.0  0.34635  0.57082  0.62769  1.0000
  H   H261      1.0  0.30632  0.61324  0.44079  1.0000
  H   H262      1.0  0.16198  0.68950  0.40940  1.0000
  H   H263      1.0  0.42479  0.52789  0.60130  1.0000
  H   H264      1.0  0.11061  0.55045  0.39320  1.0000
  H   H265      1.0  0.02328  0.51281  0.45555  1.0000
  C   C144      1.0  0.18704  0.74101  0.35647  1.0000
  H   H266      1.0  0.41504  0.70071  0.55885  1.0000
  H   H267      1.0  0.04606  0.55546  0.38565  1.0000
  C   C145      1.0  0.24483  0.50621  0.63466  1.0000
  H   H268      1.0  0.34595  0.97018  0.48841  1.0000
  C   C146      1.0  0.34676  0.78373  0.50861  1.0000
  H   H269      1.0  0.36931  0.78935  0.52789  1.0000
  C   C147      1.0  0.37496  0.98161  0.47507  1.0000
  H   H270      1.0  0.20341  0.58647  0.39543  1.0000
  H   H271      1.0  0.34975  0.65315  0.53079  1.0000
  H   H272      1.0  0.19852  0.69157  0.35992  1.0000
  H   H273      1.0  0.36836  0.96552  0.45153  1.0000
  S   S29       1.0  0.37898  0.79351  0.32781  1.0000
  C   C148      1.0  0.34958  0.67243  0.55084  1.0000
  H   H274      1.0  0.12108  0.68768  0.38701  1.0000
  C   C149      1.0  0.05909  0.56803  0.36180  1.0000
  H   H275      1.0  0.38491  0.65448  0.58083  1.0000
  H   H276      1.0  0.18084  0.63847  0.39331  1.0000
  Fe  Fe16      1.0  0.42975  0.85862  0.33133  1.0000
  H   H277      1.0  0.16164  0.74682  0.35150  1.0000
  C   C150      1.0  0.10241  0.61880  0.42243  1.0000
  C   C151      1.0  0.36830  0.81503  0.48211  1.0000
  C   C152      1.0  0.17150  0.69551  0.35799  1.0000
  H   H278      1.0  0.35997  0.73346  0.55762  1.0000
  H   H279      1.0  0.42253  0.95956  0.39140  1.0000
  C   C153      1.0  0.41957  0.57509  0.57803  1.0000
  H   H280      1.0  0.10181  0.62297  0.33888  1.0000
  C   C154      1.0  0.14137  0.57544  0.39914  1.0000
  N   N9        1.0  0.12032  0.63038  0.38904  1.0000
  C   C155      1.0  0.15054  0.61604  0.38342  1.0000
  C   C156      1.0  0.14288  0.67617  0.38735  1.0000
  C   C157      1.0  0.08785  0.61446  0.36316  1.0000
  H   H281      1.0  0.22265  0.66200  0.60865  1.0000
  H   H282      1.0  0.19889  0.50223  0.60132  1.0000
  S   S30       1.0  0.47038  0.84187  0.35933  1.0000
  S   S31       1.0  0.11801  0.49391  0.53317  1.0000
  H   H283      1.0  0.40386  0.57976  0.55724  1.0000
  C   C158      1.0  0.05531  0.61854  0.46579  1.0000
  H   H284      1.0  0.98965  0.54575  0.50608  1.0000
  H   H285      1.0  0.20982  0.75475  0.33690  1.0000
  S   S32       1.0  0.05139  0.49264  0.59824  1.0000
  H   H286      1.0  0.46158  0.51866  0.39626  1.0000
  H   H287      1.0  0.45694  0.54462  0.35108  1.0000
  C   C159      1.0  0.01109  0.49003  0.62188  1.0000
  C   C160      1.0  0.01288  0.49436  0.43400  1.0000
  H   H288      1.0  0.00427  0.52321  0.33727  1.0000
  H   H289      1.0  0.99659  0.56037  0.54797  1.0000
  C   C161      1.0  0.28654  0.52488  0.64213  1.0000
  H   H290      1.0  0.45920  0.87569  0.64844  1.0000
  C   C162      1.0  0.47656  0.98581  0.48005  1.0000
  S   S33       1.0  0.48098  0.88571  0.44854  1.0000
  Fe  Fe17      1.0  0.36673  0.53118  0.69556  1.0000
  C   C163      1.0  0.46919  0.65121  0.89294  1.0000
  C   C164      1.0  0.09521  0.54354  0.69958  1.0000
  Fe  Fe18      1.0  0.41270  0.52070  0.75422  1.0000
  C   C165      1.0  0.40026  0.55295  0.87523  1.0000
  C   C166      1.0  0.43197  0.71030  0.80641  1.0000
  Fe  Fe19      1.0  0.44432  0.60224  0.72125  1.0000
  C   C167      1.0  0.01882  0.52692  0.72888  1.0000
  H   H291      1.0  0.43146  0.82796  0.69435  1.0000
  S   S34       1.0  0.38502  0.56023  0.74472  1.0000
  H   H292      1.0  0.42544  0.96729  0.82335  1.0000
  H   H293      1.0  0.39137  0.52617  0.85918  1.0000
  Fe  Fe20      1.0  0.43511  0.80315  0.86562  1.0000
  S   S35       1.0  0.38111  0.78801  0.83494  1.0000
  H   H294      1.0  0.37166  0.54827  0.88631  1.0000
  Fe  Fe21      1.0  0.42330  0.86482  0.90689  1.0000
  S   S36       1.0  0.36745  0.85098  0.87748  1.0000
  H   H295      1.0  0.39722  0.70489  0.90924  1.0000
  Fe  Fe22      1.0  0.34983  0.78538  0.88175  1.0000
  S   S37       1.0  0.28694  0.72911  0.88769  1.0000
  Fe  Fe23      1.0  0.40470  0.85533  0.83378  1.0000
  S   S38       1.0  0.43372  0.91298  0.94575  1.0000
  S   S39       1.0  0.40337  0.79826  0.91299  1.0000
  C   C168      1.0  0.21640  0.57136  0.91276  1.0000
  C   C169      1.0  0.39017  0.58539  0.82870  1.0000
  H   H296      1.0  0.44261  0.90357  0.67369  1.0000
  C   C170      1.0  0.17043  0.54388  0.90924  1.0000
  C   C171      1.0  0.39255  0.95866  0.86812  1.0000
  C   C172      1.0  0.29776  0.63168  0.92992  1.0000
  Fe  Fe24      1.0  0.44751  0.53197  0.68520  1.0000
  H   H297      1.0  0.40306  0.70268  0.81709  1.0000
  H   H298      1.0  0.45114  0.56659  0.82831  1.0000
  H   H299      1.0  0.04231  0.55936  0.72597  1.0000
  H   H300      1.0  0.34192  0.54159  0.94679  1.0000
  C   C173      1.0  0.27148  0.72569  0.95375  1.0000
  C   C174      1.0  0.25784  0.70818  0.92327  1.0000
  C   C175      1.0  0.22011  0.67218  0.92079  1.0000
  C   C176      1.0  0.19633  0.65374  0.94833  1.0000
  H   H301      1.0  0.30032  0.75346  0.95607  1.0000
  H   H302      1.0  0.20904  0.65862  0.89731  1.0000
  H   H303      1.0  0.16717  0.62636  0.94593  1.0000
  C   C177      1.0  0.29008  0.54771  0.93184  1.0000
  C   C178      1.0  0.43354  0.68738  0.77987  1.0000
  H   H304      1.0  0.22441  0.60057  0.90102  1.0000
  H   H305      1.0  0.32147  0.58837  0.97202  1.0000
  H   H306      1.0  0.39193  0.91969  0.72764  1.0000
  S   S40       1.0  0.30250  0.50708  0.67565  1.0000
  N   N10       1.0  0.46440  0.82953  0.73787  1.0000
  N   N11       1.0  0.03803  0.50288  0.74090  1.0000
  H   H307      1.0  0.32926  0.54579  0.84880  1.0000
  H   H308      1.0  0.40578  0.66293  0.76976  1.0000
  C   C179      1.0  0.42549  0.55038  0.90350  1.0000
  H   H309      1.0  0.38543  0.55971  0.81284  1.0000
  H   H310      1.0  0.29313  0.57406  0.81926  1.0000
  H   H311      1.0  0.42563  0.65074  0.85985  1.0000
  H   H312      1.0  0.25836  0.52647  0.92423  1.0000
  H   H313      1.0  0.00552  0.51632  0.70445  1.0000
  H   H314      1.0  0.35044  0.70356  0.89928  1.0000
  H   H315      1.0  0.07882  0.55444  0.68394  1.0000
  H   H316      1.0  0.01917  0.51459  0.86241  1.0000
  H   H317      1.0  0.07220  0.55554  0.77191  1.0000
  H   H318      1.0  0.32908  0.91149  0.86881  1.0000
  H   H319      1.0  0.15414  0.55798  0.92087  1.0000
  H   H320      1.0  0.14516  0.53131  0.69293  1.0000
  H   H321      1.0  0.40143  0.93908  0.88134  1.0000
  S   S41       1.0  0.46094  0.87126  0.86256  1.0000
  C   C180      1.0  0.47111  0.69655  0.76625  1.0000
  H   H322      1.0  0.27143  0.54945  0.98000  1.0000
  H   H323      1.0  0.16196  0.53922  0.88329  1.0000
  H   H324      1.0  0.35585  0.91136  0.83307  1.0000
  C   C181      1.0  0.39566  0.76155  0.73652  1.0000
  C   C182      1.0  0.35785  0.73549  0.75674  1.0000
  H   H325      1.0  0.36591  0.72426  0.77863  1.0000
  H   H326      1.0  0.11144  0.56655  0.71869  1.0000
  C   C183      1.0  0.00303  0.48861  0.87792  1.0000
  C   C184      1.0  0.43742  0.92842  0.76296  1.0000
  S   S42       1.0  0.40427  0.48659  0.80181  1.0000
  N   N12       1.0  0.41978  0.59120  0.85542  1.0000
  H   H327      1.0  0.41238  0.81303  0.76823  1.0000
  C   C185      1.0  0.46653  0.94698  0.97638  1.0000
  H   H328      1.0  0.35892  0.64002  0.93907  1.0000
  S   S43       1.0  0.40254  0.88558  0.78625  1.0000
  C   C186      1.0  0.42347  0.93818  0.73471  1.0000
  C   C187      1.0  0.42787  0.79823  0.75617  1.0000
  C   C188      1.0  0.20980  0.67130  0.97879  1.0000
  H   H329      1.0  0.12430  0.53781  0.76283  1.0000
  C   C189      1.0  0.32372  0.58084  0.81107  1.0000
  H   H330      1.0  0.46643  0.96682  0.88968  1.0000
  C   C190      1.0  0.06109  0.52238  0.77173  1.0000
  H   H331      1.0  0.38551  0.77108  0.71487  1.0000
  H   H332      1.0  0.34102  0.94938  0.83829  1.0000
  H   H333      1.0  0.34314  0.75320  0.76409  1.0000
  H   H334      1.0  0.33565  0.70895  0.74234  1.0000
  H   H335      1.0  0.40281  0.61263  0.81307  1.0000
  H   H336      1.0  0.35129  0.67982  0.95524  1.0000
  H   H337      1.0  0.43723  0.78469  0.77574  1.0000
  H   H338      1.0  0.44231  0.77415  0.68508  1.0000
  H   H339      1.0  0.09033  0.51242  0.83145  1.0000
  H   H340      1.0  0.34971  0.59870  0.85833  1.0000
  H   H341      1.0  0.31978  0.55903  0.79161  1.0000
  H   H342      1.0  0.12171  0.56401  0.81765  1.0000
  H   H343      1.0  0.21474  0.59512  0.95885  1.0000
  S   S44       1.0  0.42503  0.57485  0.67103  1.0000
  C   C191      1.0  0.35223  0.93114  0.85091  1.0000
  H   H344      1.0  0.99365  0.53008  0.77623  1.0000
  H   H345      1.0  0.42755  0.57108  0.92322  1.0000
  H   H346      1.0  0.46486  0.70537  0.90179  1.0000
  H   H347      1.0  0.04013  0.51042  0.79278  1.0000
  C   C192      1.0  0.22960  0.57864  0.94882  1.0000
  H   H348      1.0  0.14702  0.57038  0.66734  1.0000
  H   H349      1.0  0.04617  0.51559  0.91737  1.0000
  C   C193      1.0  0.36421  0.68446  0.90483  1.0000
  C   C194      1.0  0.98496  0.52598  0.75034  1.0000
  H   H350      1.0  0.28530  0.65249  0.92695  1.0000
  H   H351      1.0  0.29315  0.61653  0.90618  1.0000
  C   C195      1.0  0.34747  0.57709  0.83939  1.0000
  C   C196      1.0  0.12649  0.54050  0.67841  1.0000
  H   H352      1.0  0.36049  0.66515  0.88356  1.0000
  H   H353      1.0  0.23131  0.55742  0.89915  1.0000
  H   H354      1.0  0.37331  0.49738  0.92454  1.0000
  H   H355      1.0  0.00200  0.58952  0.74544  1.0000
  H   H356      1.0  0.33974  0.61207  0.80121  1.0000
  H   H357      1.0  0.30723  0.56759  0.91145  1.0000
  C   C197      1.0  0.42758  0.62778  0.87528  1.0000
  H   H358      1.0  0.21453  0.54879  0.96126  1.0000
  S   S45       1.0  0.47311  0.56404  0.73293  1.0000
  C   C198      1.0  0.34438  0.65860  0.93469  1.0000
  H   H359      1.0  0.40325  0.61900  0.89363  1.0000
  H   H360      1.0  0.16043  0.51387  0.92035  1.0000
  H   H361      1.0  0.47612  0.87744  0.77184  1.0000
  C   C199      1.0  0.44974  0.97185  0.71556  1.0000
  H   H362      1.0  0.40825  0.74196  0.72920  1.0000
  N   N13       1.0  0.27480  0.60148  0.95624  1.0000
  H   H363      1.0  0.30763  0.50344  0.91863  1.0000
  S   S46       1.0  0.38784  0.48710  0.70755  1.0000
  C   C200      1.0  0.30947  0.52199  0.93996  1.0000
  H   H364      1.0  0.14170  0.52989  0.81842  1.0000
  C   C201      1.0  0.45777  0.59557  0.84003  1.0000
  C   C202      1.0  0.01844  0.48933  0.90916  1.0000
  H   H365      1.0  0.42963  0.85854  0.72533  1.0000
  S   S47       1.0  0.46907  0.76854  0.85570  1.0000
  C   C203      1.0  0.29026  0.57235  0.96157  1.0000
  C   C204      1.0  0.47550  0.79381  0.68810  1.0000
  C   C205      1.0  0.46799  0.74228  0.81964  1.0000
  C   C206      1.0  0.46875  0.89945  0.66735  1.0000
  H   H366      1.0  0.42212  0.50716  0.93892  1.0000
  H   H367      1.0  0.45959  0.61784  0.79116  1.0000
  H   H368      1.0  0.38675  0.97725  0.88563  1.0000
  H   H369      1.0  0.40515  0.48597  0.89926  1.0000
  H   H370      1.0  0.11105  0.51812  0.65865  1.0000
  H   H371      1.0  0.29308  0.50108  0.96018  1.0000
  C   C207      1.0  0.40512  0.50758  0.91733  1.0000
  C   C208      1.0  0.45030  0.84945  0.71357  1.0000
  H   H372      1.0  0.43827  0.97905  0.69417  1.0000
  S   S48       1.0  0.47498  0.49791  0.65852  1.0000
  C   C209      1.0  0.09906  0.51842  0.77932  1.0000
  C   C210      1.0  0.24733  0.70758  0.98126  1.0000
  H   H373      1.0  0.44679  0.66937  0.93461  1.0000
  C   C211      1.0  0.06457  0.50188  0.71423  1.0000
  C   C212      1.0  0.11402  0.53207  0.81384  1.0000
  H   H374      1.0  0.45639  0.55776  0.89600  1.0000
  C   C213      1.0  0.47839  0.95260  0.77151  1.0000
  S   S49       1.0  0.47604  0.67028  0.73235  1.0000
  C   C214      1.0  0.47022  0.68346  0.91554  1.0000
  H   H375      1.0  0.47607  0.63103  0.90735  1.0000
  H   H376      1.0  0.47791  0.65691  0.82153  1.0000
  C   C215      1.0  0.47737  0.62875  0.81392  1.0000
  H   H377      1.0  0.47721  0.96080  0.84959  1.0000
  H   H378      1.0  0.08173  0.48691  0.72210  1.0000
  H   H379      1.0  0.09312  0.48708  0.77648  1.0000
  C   C216      1.0  0.51182  0.25777  0.06480  1.0000
  Fe  Fe25      1.0  0.81903  0.35759  0.28143  1.0000
  S   S50       1.0  0.80366  0.39820  0.25393  1.0000
  S   S51       1.0  0.78482  0.29036  0.26763  1.0000
  Fe  Fe26      1.0  0.87099  0.44214  0.25405  1.0000
  H   H380      1.0  0.66326  0.33418  0.00751  1.0000
  Fe  Fe27      1.0  0.80012  0.42353  0.30211  1.0000
  H   H381      1.0  0.59941  0.17858  0.27341  1.0000
  S   S52       1.0  0.88720  0.40043  0.28018  1.0000
  H   H382      1.0  0.70242  0.31310  0.03534  1.0000
  C   C217      1.0  0.54687  0.04185  0.30412  1.0000
  Fe  Fe28      1.0  0.54893  0.08265  0.09164  1.0000
  S   S53       1.0  0.55096  0.03857  0.05432  1.0000
  Fe  Fe29      1.0  0.60398  0.15491  0.13751  1.0000
  S   S54       1.0  0.54931  0.15241  0.16010  1.0000
  S   S55       1.0  0.66559  0.21218  0.14681  1.0000
  Fe  Fe30      1.0  0.52112  0.08440  0.16016  1.0000
  S   S56       1.0  0.58602  0.38583  0.99179  1.0000
  Fe  Fe31      1.0  0.52567  0.14695  0.10940  1.0000
  H   H383      1.0  0.51210  0.41908  0.18938  1.0000
  S   S57       1.0  0.57779  0.08705  0.14071  1.0000
  S   S58       1.0  0.58095  0.15080  0.08655  1.0000
  H   H384      1.0  0.68376  0.37361  0.18622  1.0000
  C   C218      1.0  0.61525  0.25915  0.26707  1.0000
  H   H385      1.0  0.60779  0.17188  0.23164  1.0000
  C   C219      1.0  0.50615  0.21835  0.06330  1.0000
  H   H386      1.0  0.58248  0.10658  0.29435  1.0000
  H   H387      1.0  0.49408  0.16868  0.03172  1.0000
  H   H388      1.0  0.63431  0.31500  0.22351  1.0000
  H   H389      1.0  0.54964  0.48387  0.21948  1.0000
  H   H390      1.0  0.66510  0.38641  0.06451  1.0000
  C   C220      1.0  0.69404  0.23278  0.18291  1.0000
  C   C221      1.0  0.69756  0.20852  0.20652  1.0000
  C   C222      1.0  0.72498  0.22654  0.23256  1.0000
  C   C223      1.0  0.74862  0.26893  0.23568  1.0000
  C   C224      1.0  0.74389  0.29308  0.21269  1.0000
  C   C225      1.0  0.71727  0.27512  0.18626  1.0000
  H   H391      1.0  0.68042  0.17591  0.20404  1.0000
  H   H392      1.0  0.72838  0.20749  0.25013  1.0000
  H   H393      1.0  0.76178  0.32560  0.21465  1.0000
  H   H394      1.0  0.71503  0.29416  0.16803  1.0000
  H   H395      1.0  0.67056  0.41326  0.00928  1.0000
  H   H396      1.0  0.71682  0.37616  0.25455  1.0000
  H   H397      1.0  0.57491  0.00250  0.14162  1.0000
  H   H398      1.0  0.67664  0.30707  0.22625  1.0000
  C   C226      1.0  0.49912  0.19919  0.03323  1.0000
  H   H399      1.0  0.71601  0.23147  0.07523  1.0000
  S   S59       1.0  0.86597  0.47240  0.29943  1.0000
  C   C227      1.0  0.70849  0.38106  0.20398  1.0000
  H   H400      1.0  0.49577  0.39012  0.11869  1.0000
  C   C228      1.0  0.94012  0.47982  0.18343  1.0000
  C   C229      1.0  0.50278  0.25844  0.00663  1.0000
  H   H401      1.0  0.69914  0.31883  0.07736  1.0000
  S   S60       1.0  0.89592  0.47125  0.20482  1.0000
  H   H402      1.0  0.51571  0.01687  0.29892  1.0000
  C   C230      1.0  0.62769  0.23407  0.24511  1.0000
  H   H403      1.0  0.56701  0.18092  0.24224  1.0000
  H   H404      1.0  0.65885  0.24044  0.25091  1.0000
  H   H405      1.0  0.91987  0.31890  0.23427  1.0000
  C   C231      1.0  0.66107  0.32132  0.23883  1.0000
  C   C232      1.0  0.65072  0.33581  0.03134  1.0000
  H   H406      1.0  0.48617  0.43177  0.03418  1.0000
  H   H407      1.0  0.66909  0.24717  0.30610  1.0000
  C   C233      1.0  0.90663  0.33816  0.22771  1.0000
  C   C234      1.0  0.61037  0.26237  0.03478  1.0000
  C   C235      1.0  0.62604  0.30406  0.08370  1.0000
  C   C236      1.0  0.61751  0.27136  0.10939  1.0000
  C   C237      1.0  0.59746  0.27719  0.13928  1.0000
  H   H408      1.0  0.58151  0.26315  0.03379  1.0000
  H   H409      1.0  0.60258  0.23451  0.04851  1.0000
  H   H410      1.0  0.64761  0.33312  0.09564  1.0000
  H   H411      1.0  0.59750  0.30508  0.07967  1.0000
  H   H412      1.0  0.59704  0.24040  0.10009  1.0000
  H   H413      1.0  0.64650  0.27379  0.11756  1.0000
  H   H414      1.0  0.56757  0.27405  0.13289  1.0000
  H   H415      1.0  0.59222  0.25354  0.15728  1.0000
  H   H416      1.0  0.61726  0.30740  0.15036  1.0000
  H   H417      1.0  0.65530  0.23834  0.07902  1.0000
  H   H418      1.0  0.96425  0.45872  0.22078  1.0000
  N   N14       1.0  0.85776  0.35049  0.14823  1.0000
  C   C238      1.0  0.88858  0.35291  0.12400  1.0000
  C   C239      1.0  0.81822  0.31068  0.14485  1.0000
  C   C240      1.0  0.84929  0.38438  0.14064  1.0000
  C   C241      1.0  0.87353  0.35632  0.18244  1.0000
  C   C242      1.0  0.88896  0.32763  0.19365  1.0000
  C   C243      1.0  0.93011  0.39292  0.12397  1.0000
  C   C244      1.0  0.81479  0.38498  0.16022  1.0000
  C   C245      1.0  0.82064  0.27285  0.13408  1.0000
  C   C246      1.0  0.78024  0.23392  0.13962  1.0000
  C   C247      1.0  0.51740  0.00350  0.02461  1.0000
  C   C248      1.0  0.80775  0.41912  0.14877  1.0000
  H   H419      1.0  0.83631  0.44882  0.15045  1.0000
  H   H420      1.0  0.87564  0.34845  0.09917  1.0000
  H   H421      1.0  0.89539  0.32807  0.12735  1.0000
  H   H422      1.0  0.80100  0.30318  0.16785  1.0000
  H   H423      1.0  0.79797  0.31316  0.12659  1.0000
  H   H424      1.0  0.84185  0.38373  0.11454  1.0000
  H   H425      1.0  0.87676  0.41435  0.14514  1.0000
  H   H426      1.0  0.89818  0.38813  0.18651  1.0000
  H   H427      1.0  0.84939  0.35205  0.19983  1.0000
  H   H428      1.0  0.91319  0.32950  0.17769  1.0000
  H   H429      1.0  0.86336  0.29605  0.19452  1.0000
  H   H430      1.0  0.92646  0.41859  0.11573  1.0000
  H   H431      1.0  0.94413  0.40001  0.14831  1.0000
  H   H432      1.0  0.82299  0.39025  0.18612  1.0000
  H   H433      1.0  0.78558  0.35623  0.15772  1.0000
  H   H434      1.0  0.82759  0.27491  0.10790  1.0000
  H   H435      1.0  0.84444  0.26982  0.14705  1.0000
  H   H436      1.0  0.75499  0.23508  0.12703  1.0000
  H   H437      1.0  0.78200  0.20751  0.13024  1.0000
  H   H438      1.0  0.77330  0.22934  0.16580  1.0000
  C   C249      1.0  0.62852  0.32513  0.28830  1.0000
  H   H439      1.0  0.60500  0.24307  0.29034  1.0000
  H   H440      1.0  0.65133  0.35781  0.29141  1.0000
  S   S61       1.0  0.74258  0.42738  0.31070  1.0000
  C   C250      1.0  0.96864  0.47087  0.19665  1.0000
  C   C251      1.0  0.55132  0.08085  0.29001  1.0000
  H   H441      1.0  0.51519  0.30823  0.03819  1.0000
  S   S62       1.0  0.57432  0.46871  0.04161  1.0000
  H   H442      1.0  0.72599  0.36613  0.19665  1.0000
  H   H443      1.0  0.79151  0.46202  0.99642  1.0000
  C   C252      1.0  0.49678  0.21890  0.00518  1.0000
  H   H444      1.0  0.72745  0.27703  0.09676  1.0000
  H   H445      1.0  0.67555  0.38476  0.24433  1.0000
  H   H446      1.0  0.56840  0.03508  0.29114  1.0000
  H   H447      1.0  0.62704  0.24187  0.21937  1.0000
  C   C253      1.0  0.51102  0.27805  0.03661  1.0000
  C   C254      1.0  0.62006  0.25667  0.99942  1.0000
  H   H448      1.0  0.93092  0.37045  0.22940  1.0000
  H   H449      1.0  0.74366  0.27974  0.05522  1.0000
  H   H450      1.0  0.88218  0.33209  0.24524  1.0000
  C   C255      1.0  0.68200  0.29928  0.05643  1.0000
  C   C256      1.0  0.67873  0.25728  0.06128  1.0000
  C   C257      1.0  0.69616  0.41115  0.02015  1.0000
  H   H451      1.0  0.62167  0.33535  0.02583  1.0000
  C   C258      1.0  0.69106  0.36759  0.23777  1.0000
  N   N15       1.0  0.64267  0.29973  0.05179  1.0000
  H   H452      1.0  0.70019  0.33885  0.30205  1.0000
  H   H453      1.0  0.72941  0.41436  0.20401  1.0000
  H   H454      1.0  0.71759  0.44094  0.03119  1.0000
  S   S63       1.0  0.49172  0.07844  0.11142  1.0000
  C   C259      1.0  0.71912  0.26193  0.07277  1.0000
  H   H455      1.0  0.70753  0.37871  0.05701  1.0000
  C   C260      1.0  0.68068  0.37814  0.04585  1.0000
  H   H456      1.0  0.52868  0.08773  0.30079  1.0000
  H   H457      1.0  0.52893  0.00494  0.20559  1.0000
  H   H458      1.0  0.60394  0.32393  0.27272  1.0000
  C   C261      1.0  0.96012  0.39026  0.10096  1.0000
  H   H459      1.0  0.79662  0.41382  0.12345  1.0000
  H   H460      1.0  0.94812  0.38458  0.07587  1.0000
  C   C262      1.0  0.49562  0.45212  0.05468  1.0000
  H   H461      1.0  0.50454  0.43733  0.15247  1.0000
  H   H462      1.0  0.70692  0.30762  0.27424  1.0000
  H   H463      1.0  0.96617  0.36577  0.10835  1.0000
  H   H464      1.0  0.78479  0.42063  0.16429  1.0000
  C   C263      1.0  0.59857  0.18859  0.24845  1.0000
  C   C264      1.0  0.50438  0.99100  0.22276  1.0000
  N   N16       1.0  0.64740  0.30301  0.27193  1.0000
  H   H465      1.0  0.58738  0.25707  0.25615  1.0000
  Fe  Fe32      1.0  0.56604  0.43233  0.99519  1.0000
  H   H466      1.0  0.51510  0.00550  0.12256  1.0000
  H   H467      1.0  0.54584  0.07714  0.26355  1.0000
  H   H468      1.0  0.71227  0.40469  0.00075  1.0000
  C   C265      1.0  0.49169  0.44602  0.31051  1.0000
  C   C266      1.0  0.68400  0.30822  0.29066  1.0000
  H   H469      1.0  0.52254  0.45630  0.30284  1.0000
  H   H470      1.0  0.51665  0.27266  0.08794  1.0000
  C   C267      1.0  0.53651  0.47280  0.06391  1.0000
  S   S64       1.0  0.50569  0.19364  0.09975  1.0000
  H   H471      1.0  0.67060  0.24002  0.03828  1.0000
  C   C268      1.0  0.49298  0.46433  0.19318  1.0000
  C   C269      1.0  0.59485  0.21258  0.98841  1.0000
  H   H472      1.0  0.56190  0.20214  0.99015  1.0000
  H   H473      1.0  0.60187  0.19272  0.00344  1.0000
  H   H474      1.0  0.65266  0.26647  0.99619  1.0000
  C   C270      1.0  0.49097  0.42679  0.17671  1.0000
  S   S65       1.0  0.48160  0.04703  0.20286  1.0000
  H   H475      1.0  0.48156  0.40311  0.24019  1.0000
  H   H476      1.0  0.49402  0.32405  0.12342  1.0000
  H   H477      1.0  0.61273  0.27534  0.98313  1.0000
  S   S66       1.0  0.91579  0.45427  0.37291  1.0000
  Fe  Fe33      1.0  0.51984  0.39994  0.41366  1.0000
  H   H478      1.0  0.55203  0.12406  0.44871  1.0000
  Fe  Fe34      1.0  0.51962  0.34497  0.47004  1.0000
  S   S67       1.0  0.56666  0.39856  0.49809  1.0000
  S   S68       1.0  0.81239  0.38055  0.32997  1.0000
  Fe  Fe35      1.0  0.53049  0.42887  0.48447  1.0000
  Fe  Fe36      1.0  0.59844  0.41967  0.45015  1.0000
  S   S69       1.0  0.66538  0.43833  0.44479  1.0000
  S   S70       1.0  0.55289  0.36548  0.42277  1.0000
  H   H479      1.0  0.63577  0.42638  0.37819  1.0000
  H   H480      1.0  0.92748  0.34861  0.55223  1.0000
  H   H481      1.0  0.77230  0.37463  0.48964  1.0000
  C   C271      1.0  0.68567  0.43323  0.40754  1.0000
  C   C272      1.0  0.66504  0.42795  0.37832  1.0000
  H   H482      1.0  0.49715  0.46561  0.41740  1.0000
  C   C273      1.0  0.93606  0.41073  0.55548  1.0000
  N   N17       1.0  0.65316  0.33947  0.52183  1.0000
  H   H483      1.0  0.60234  0.36261  0.33162  1.0000
  H   H484      1.0  0.88117  0.37371  0.41799  1.0000
  H   H485      1.0  0.70757  0.36337  0.46528  1.0000
  C   C274      1.0  0.49979  0.26883  0.54934  1.0000
  Fe  Fe37      1.0  0.53410  0.07321  0.57939  1.0000
  H   H486      1.0  0.74047  0.44045  0.42941  1.0000
  Fe  Fe38      1.0  0.60694  0.14129  0.61926  1.0000
  C   C275      1.0  0.62754  0.25743  0.58863  1.0000
  C   C276      1.0  0.54913  0.04085  0.41439  1.0000
  H   H487      1.0  0.97443  0.42772  0.35648  1.0000
  Fe  Fe39      1.0  0.52673  0.14086  0.61412  1.0000
  H   H488      1.0  0.61984  0.25419  0.53733  1.0000
  S   S71       1.0  0.57656  0.07275  0.61785  1.0000
  S   S72       1.0  0.56946  0.14159  0.57702  1.0000
  C   C277      1.0  0.51009  0.25949  0.51939  1.0000
  H   H489      1.0  0.53295  0.18754  0.54500  1.0000
  H   H490      1.0  0.59605  0.25044  0.59393  1.0000
  C   C278      1.0  0.51067  0.21732  0.57583  1.0000
  H   H491      1.0  0.49920  0.42362  0.57163  1.0000
  H   H492      1.0  0.59194  0.00374  0.33544  1.0000
  H   H493      1.0  0.49003  0.25386  0.60003  1.0000
  H   H494      1.0  0.95822  0.47435  0.49097  1.0000
  C   C279      1.0  0.63999  0.31689  0.55346  1.0000
  Fe  Fe40      1.0  0.87893  0.42819  0.32600  1.0000
  H   H495      1.0  0.88154  0.35051  0.55659  1.0000
  C   C280      1.0  0.71847  0.38140  0.48784  1.0000
  C   C281      1.0  0.69777  0.35391  0.51730  1.0000
  C   C282      1.0  0.64078  0.27656  0.55531  1.0000
  H   H496      1.0  0.62841  0.22878  0.58945  1.0000
  C   C283      1.0  0.62804  0.31046  0.49512  1.0000
  C   C284      1.0  0.64469  0.37415  0.52399  1.0000
  C   C285      1.0  0.66902  0.40695  0.54995  1.0000
  C   C286      1.0  0.61989  0.32861  0.46440  1.0000
  C   C287      1.0  0.60063  0.29692  0.43762  1.0000
  C   C288      1.0  0.49786  0.45059  0.57757  1.0000
  H   H497      1.0  0.61167  0.36208  0.52846  1.0000
  H   H498      1.0  0.65085  0.39049  0.50084  1.0000
  H   H499      1.0  0.71271  0.40715  0.48667  1.0000
  H   H500      1.0  0.66162  0.39414  0.57459  1.0000
  H   H501      1.0  0.70221  0.42075  0.54604  1.0000
  H   H502      1.0  0.59836  0.33949  0.47015  1.0000
  H   H503      1.0  0.64779  0.35443  0.45466  1.0000
  H   H504      1.0  0.57130  0.27106  0.44578  1.0000
  H   H505      1.0  0.62146  0.28581  0.43021  1.0000
  H   H506      1.0  0.67179  0.28156  0.55117  1.0000
  H   H507      1.0  0.74763  0.26833  0.62893  1.0000
  C   C289      1.0  0.61116  0.31089  0.32258  1.0000
  S   S73       1.0  0.48898  0.07232  0.61556  1.0000
  H   H508      1.0  0.64157  0.29167  0.48758  1.0000
  H   H509      1.0  0.59168  0.27763  0.32415  1.0000
  H   H510      1.0  0.56222  0.06569  0.46309  1.0000
  S   S74       1.0  0.50371  0.27982  0.48254  1.0000
  H   H511      1.0  0.77112  0.43550  0.37782  1.0000
  H   H512      1.0  0.90507  0.36037  0.50242  1.0000
  S   S75       1.0  0.67370  0.19201  0.62106  1.0000
  C   C290      1.0  0.49962  0.24750  0.57727  1.0000
  H   H513      1.0  0.49048  0.14717  0.50392  1.0000
  H   H514      1.0  0.87707  0.33693  0.44720  1.0000
  S   S76       1.0  0.50983  0.40989  0.36039  1.0000
  H   H515      1.0  0.64830  0.27787  0.60764  1.0000
  C   C291      1.0  0.72397  0.43579  0.40707  1.0000
  H   H516      1.0  0.58968  0.06563  0.34369  1.0000
  H   H517      1.0  0.73976  0.29434  0.32434  1.0000
  C   C292      1.0  0.55612  0.04590  0.34091  1.0000
  C   C293      1.0  0.96259  0.46339  0.39033  1.0000
  H   H518      1.0  0.94663  0.37098  0.60897  1.0000
  H   H519      1.0  0.55154  0.12272  0.49219  1.0000
  H   H520      1.0  0.88060  0.38889  0.50766  1.0000
  C   C294      1.0  0.74150  0.43313  0.37781  1.0000
  C   C295      1.0  0.90967  0.39126  0.49948  1.0000
  N   N18       1.0  0.94433  0.42185  0.52018  1.0000
  H   H521      1.0  0.62649  0.42948  0.55428  1.0000
  H   H522      1.0  0.84853  0.36312  0.45237  1.0000
  S   S77       1.0  0.50708  0.04073  0.53056  1.0000
  H   H523      1.0  0.59374  0.03014  0.39063  1.0000
  H   H524      1.0  0.66573  0.45527  0.52432  1.0000
  C   C296      1.0  0.49927  0.99656  0.50898  1.0000
  H   H525      1.0  0.55678  0.07029  0.40346  1.0000
  C   C297      1.0  0.52190  0.22988  0.51816  1.0000
  H   H526      1.0  0.90130  0.37491  0.61370  1.0000
  H   H527      1.0  0.91321  0.42838  0.45754  1.0000
  H   H528      1.0  0.59717  0.28870  0.50410  1.0000
  H   H529      1.0  0.54997  0.16353  0.47118  1.0000
  C   C298      1.0  0.72126  0.42883  0.34853  1.0000
  C   C299      1.0  0.91396  0.36504  0.56414  1.0000
  H   H530      1.0  0.57526  0.32067  0.35849  1.0000
  S   S78       1.0  0.50695  0.18876  0.61096  1.0000
  C   C300      1.0  0.76456  0.39915  0.48903  1.0000
  S   S79       1.0  0.56767  0.45558  0.43928  1.0000
  H   H531      1.0  0.51635  0.02383  0.42031  1.0000
  C   C301      1.0  0.57239  0.04977  0.44634  1.0000
  C   C302      1.0  0.50559  0.47934  0.55358  1.0000
  H   H532      1.0  0.72127  0.31909  0.35123  1.0000
  H   H533      1.0  0.70277  0.32772  0.51440  1.0000
  H   H534      1.0  0.96497  0.42645  0.56963  1.0000
  H   H535      1.0  0.59459  0.31078  0.41633  1.0000
  C   C303      1.0  0.49306  0.10574  0.46979  1.0000
  N   N19       1.0  0.54195  0.00641  0.35841  1.0000
  C   C304      1.0  0.91343  0.39995  0.46271  1.0000
  C   C305      1.0  0.58503  0.32909  0.33311  1.0000
  H   H536      1.0  0.60834  0.30961  0.55936  1.0000
  C   C306      1.0  0.87776  0.36621  0.44410  1.0000
  H   H537      1.0  0.65956  0.33605  0.57361  1.0000
  H   H538      1.0  0.67778  0.46487  0.56663  1.0000
  H   H539      1.0  0.71525  0.36987  0.53937  1.0000
  H   H540      1.0  0.94171  0.40235  0.45289  1.0000
  H   H541      1.0  0.65039  0.27084  0.33297  1.0000
  C   C307      1.0  0.68303  0.42635  0.34903  1.0000
  H   H542      1.0  0.56653  0.02119  0.45813  1.0000
  C   C308      1.0  0.53950  0.13061  0.47060  1.0000
  H   H543      1.0  0.66752  0.42386  0.32652  1.0000
  H   H544      1.0  0.77849  0.41773  0.46717  1.0000
  H   H545      1.0  0.60559  0.06921  0.44238  1.0000
  H   H546      1.0  0.53015  0.22251  0.49524  1.0000
  C   C309      1.0  0.52320  0.20973  0.54626  1.0000
  C   C310      1.0  0.65904  0.44114  0.54862  1.0000
  H   H547      1.0  0.54321  0.06363  0.35173  1.0000
  H   H548      1.0  0.91611  0.42171  0.56569  1.0000
  C   C311      1.0  0.91486  0.35909  0.60052  1.0000
  S   S80       1.0  0.51714  0.47328  0.51280  1.0000
  H   H549      1.0  0.91553  0.45866  0.51669  1.0000
  C   C312      1.0  0.71340  0.29016  0.33883  1.0000
  C   C313      1.0  0.55993  0.01508  0.39201  1.0000
  H   H550      1.0  0.89713  0.32631  0.60629  1.0000
  H   H551      1.0  0.70707  0.26683  0.35739  1.0000
  C   C314      1.0  0.94652  0.46227  0.51543  1.0000
  H   H552      1.0  0.96189  0.36143  0.50001  1.0000
  H   H553      1.0  0.63665  0.32125  0.34015  1.0000
  H   H554      1.0  0.48265  0.02698  0.37907  1.0000
  H   H555      1.0  0.77771  0.41894  0.51057  1.0000
  C   C315      1.0  0.48837  0.45674  0.60933  1.0000
  H   H556      1.0  0.69352  0.34679  0.64217  1.0000
  H   H557      1.0  0.48455  0.07343  0.46891  1.0000
  H   H558      1.0  0.49007  0.29108  0.55075  1.0000
  H   H559      1.0  0.48289  0.11374  0.44734  1.0000
  H   H560      1.0  0.48463  0.10243  0.52096  1.0000
  H   H561      1.0  0.70934  0.30929  0.64452  1.0000
  H   H562      1.0  0.74659  0.36233  0.64709  1.0000
  H   H563      1.0  0.48258  0.43427  0.62754  1.0000
  H   H564      1.0  0.54971  0.98631  0.40544  1.0000
  C   C316      1.0  0.67611  0.27649  0.31724  1.0000
  H   H565      1.0  0.55743  0.31747  0.31770  1.0000
  Fe  Fe41      1.0  0.89055  0.42163  0.79613  1.0000
  H   H566      1.0  0.48987  0.02310  0.92674  1.0000
  Fe  Fe42      1.0  0.82220  0.35301  0.75489  1.0000
  S   S81       1.0  0.80608  0.39573  0.73100  1.0000
  S   S82       1.0  0.78089  0.28507  0.74559  1.0000
  Fe  Fe43      1.0  0.87368  0.43737  0.72664  1.0000
  H   H567      1.0  0.92664  0.47881  0.90891  1.0000
  Fe  Fe44      1.0  0.81006  0.42061  0.78100  1.0000
  C   C317      1.0  0.69113  0.30278  0.75683  1.0000
  S   S83       1.0  0.89013  0.39332  0.74782  1.0000
  S   S84       1.0  0.82422  0.37678  0.80560  1.0000
  Fe  Fe45      1.0  0.54202  0.42395  0.92359  1.0000
  H   H568      1.0  0.66962  0.27529  0.69408  1.0000
  Fe  Fe46      1.0  0.52920  0.34943  0.96320  1.0000
  H   H569      1.0  0.70485  0.28661  0.74451  1.0000
  H   H570      1.0  0.63034  0.33863  0.72616  1.0000
  S   S85       1.0  0.53398  0.46361  0.88534  1.0000
  Fe  Fe47      1.0  0.61477  0.41289  0.94394  1.0000
  H   H571      1.0  0.84532  0.35998  0.87933  1.0000
  S   S86       1.0  0.55830  0.37497  0.91488  1.0000
  H   H572      1.0  0.70667  0.28316  0.83673  1.0000
  H   H573      1.0  0.80717  0.46287  0.90856  1.0000
  H   H574      1.0  0.66804  0.44845  0.87167  1.0000
  H   H575      1.0  0.57330  0.99440  0.90104  1.0000
  S   S87       1.0  0.76025  0.43452  0.79618  1.0000
  C   C318      1.0  0.72261  0.40236  0.88942  1.0000
  C   C319      1.0  0.74165  0.40630  0.85938  1.0000
  H   H576      1.0  0.72838  0.38726  0.90905  1.0000
  H   H577      1.0  0.76095  0.39335  0.85575  1.0000
  H   H578      1.0  0.52315  0.07508  0.77025  1.0000
  C   C320      1.0  0.68976  0.20270  0.68726  1.0000
  C   C321      1.0  0.71433  0.22341  0.71422  1.0000
  C   C322      1.0  0.75032  0.26094  0.71080  1.0000
  C   C323      1.0  0.76159  0.27739  0.67989  1.0000
  N   N20       1.0  0.86960  0.47752  0.90208  1.0000
  C   C324      1.0  0.56860  0.44045  0.67244  1.0000
  H   H579      1.0  0.70549  0.21010  0.73791  1.0000
  H   H580      1.0  0.78933  0.30599  0.67672  1.0000
  C   C325      1.0  0.71516  0.33907  0.65378  1.0000
  S   S88       1.0  0.52495  0.04089  0.70246  1.0000
  H   H581      1.0  0.82708  0.42945  0.87069  1.0000
  C   C326      1.0  0.73533  0.42668  0.83401  1.0000
  H   H582      1.0  0.59785  0.43350  0.80177  1.0000
  H   H583      1.0  0.54735  0.01367  0.85347  1.0000
  H   H584      1.0  0.53947  0.03382  0.89024  1.0000
  C   C327      1.0  0.94641  0.42154  0.88718  1.0000
  C   C328      1.0  0.67903  0.28329  0.79086  1.0000
  S   S89       1.0  0.49697  0.28110  0.97101  1.0000
  C   C329      1.0  0.71612  0.29815  0.81289  1.0000
  H   H585      1.0  0.89679  0.46557  0.94381  1.0000
  H   H586      1.0  0.51208  0.40769  0.71825  1.0000
  S   S90       1.0  0.56506  0.14258  0.65630  1.0000
  H   H587      1.0  0.66460  0.24986  0.78879  1.0000
  H   H588      1.0  0.65716  0.28966  0.80331  1.0000
  H   H589      1.0  0.64223  0.22280  0.73803  1.0000
  H   H590      1.0  0.56059  0.42714  0.83176  1.0000
  H   H591      1.0  0.73073  0.33140  0.81661  1.0000
  H   H592      1.0  0.71663  0.33457  0.75945  1.0000
  H   H593      1.0  0.53814  0.46684  0.79758  1.0000
  C   C330      1.0  0.49054  0.99648  0.72443  1.0000
  H   H594      1.0  0.57589  0.47375  0.76943  1.0000
  H   H595      1.0  0.73494  0.33356  0.70102  1.0000
  H   H596      1.0  0.54918  0.18620  0.73818  1.0000
  H   H597      1.0  0.50317  0.44293  0.69756  1.0000
  C   C331      1.0  0.61453  0.22365  0.73088  1.0000
  H   H598      1.0  0.57648  0.15880  0.73698  1.0000
  H   H599      1.0  0.80763  0.39722  0.92337  1.0000
  H   H600      1.0  0.71625  0.36839  0.69779  1.0000
  C   C332      1.0  0.57774  0.18706  0.74561  1.0000
  N   N21       1.0  0.65777  0.30185  0.73624  1.0000
  H   H601      1.0  0.61126  0.21995  0.70425  1.0000
  H   H602      1.0  0.53613  0.00498  0.75950  1.0000
  S   S91       1.0  0.60088  0.46337  0.95030  1.0000
  H   H603      1.0  0.60717  0.26112  0.76658  1.0000
  C   C333      1.0  0.96683  0.45484  0.86673  1.0000
  H   H604      1.0  0.80863  0.33434  0.91067  1.0000
  C   C334      1.0  0.71070  0.33814  0.69044  1.0000
  H   H605      1.0  0.50536  0.39136  0.79152  1.0000
  H   H606      1.0  0.66875  0.35153  0.79400  1.0000
  C   C335      1.0  0.61704  0.26413  0.74115  1.0000
  C   C336      1.0  0.66858  0.30300  0.70098  1.0000
  C   C337      1.0  0.64279  0.34441  0.77762  1.0000
  C   C338      1.0  0.68832  0.43647  0.86839  1.0000
  C   C339      1.0  0.52263  0.44061  0.71657  1.0000
  S   S92       1.0  0.50683  0.39430  0.96917  1.0000
  H   H607      1.0  0.54102  0.11400  0.80114  1.0000
  C   C340      1.0  0.83463  0.39965  0.91103  1.0000
  H   H608      1.0  0.93930  0.42545  0.67542  1.0000
  H   H609      1.0  0.73851  0.29079  0.80232  1.0000
  C   C341      1.0  0.65349  0.33861  0.74275  1.0000
  H   H610      1.0  0.58010  0.18808  0.77233  1.0000
  H   H611      1.0  0.79491  0.35367  0.87622  1.0000
  H   H612      1.0  0.62905  0.38441  0.80522  1.0000
  H   H613      1.0  0.59302  0.26631  0.72725  1.0000
  H   H614      1.0  0.66235  0.17378  0.69037  1.0000
  C   C342      1.0  0.52951  0.00559  0.87617  1.0000
  H   H615      1.0  0.64462  0.30320  0.68547  1.0000
  H   H616      1.0  0.58881  0.46382  0.72006  1.0000
  S   S93       1.0  0.67483  0.41439  0.93311  1.0000
  H   H617      1.0  0.66260  0.40850  0.77175  1.0000
  S   S94       1.0  0.87595  0.46693  0.77414  1.0000
  H   H618      1.0  0.85756  0.40258  0.92907  1.0000
  H   H619      1.0  0.68235  0.36694  0.73782  1.0000
  C   C343      1.0  0.69582  0.41743  0.89415  1.0000
  C   C344      1.0  0.51397  0.09171  0.78721  1.0000
  H   H620      1.0  0.61505  0.31739  0.78648  1.0000
  C   C345      1.0  0.63528  0.38020  0.77976  1.0000
  H   H621      1.0  0.56031  0.38349  0.81487  1.0000
  C   C346      1.0  0.82008  0.35958  0.89310  1.0000
  C   C347      1.0  0.70832  0.44144  0.83868  1.0000
  Fe  Fe48      1.0  0.53245  0.07406  0.65399  1.0000
  H   H622      1.0  0.59993  0.45693  0.66257  1.0000
  C   C348      1.0  0.49692  0.46915  0.86276  1.0000
  N   N22       1.0  0.51681  0.45651  0.74831  1.0000
  H   H623      1.0  0.54223  0.39793  0.76114  1.0000
  H   H624      1.0  0.87585  0.43418  0.87241  1.0000
  S   S95       1.0  0.94838  0.45641  0.82739  1.0000
  H   H625      1.0  0.60873  0.37463  0.76472  1.0000
  H   H626      1.0  0.91897  0.39511  0.87890  1.0000
  C   C349      1.0  0.56607  0.46238  0.70251  1.0000
  C   C350      1.0  0.56571  0.41429  0.80933  1.0000
  H   H627      1.0  0.94579  0.39624  0.93391  1.0000
  C   C351      1.0  0.85233  0.43578  0.88741  1.0000
  H   H628      1.0  0.52617  0.05801  0.83789  1.0000
  H   H629      1.0  0.95854  0.38666  0.77999  1.0000
  C   C352      1.0  0.96183  0.42227  0.91840  1.0000
  H   H630      1.0  0.70313  0.45725  0.81928  1.0000
  H   H631      1.0  0.48681  0.08566  0.93960  1.0000
  H   H632      1.0  0.56121  0.40909  0.67837  1.0000
  C   C353      1.0  0.53662  0.41177  0.78266  1.0000
  C   C354      1.0  0.54312  0.45437  0.77479  1.0000
  H   H633      1.0  0.60196  0.20980  0.96290  1.0000
  C   C355      1.0  0.98056  0.38719  0.76211  1.0000
  S   S96       1.0  0.90437  0.47836  0.68326  1.0000
  C   C356      1.0  0.94516  0.48188  0.65979  1.0000
  C   C357      1.0  0.73784  0.25593  0.65279  1.0000
  C   C358      1.0  0.83739  0.48164  0.92037  1.0000
  C   C359      1.0  0.50461  0.98634  0.75244  1.0000
  C   C360      1.0  0.70169  0.21853  0.65623  1.0000
  H   H634      1.0  0.84260  0.47517  0.83429  1.0000
  H   H635      1.0  0.76656  0.44371  0.95797  1.0000
  C   C361      1.0  0.79380  0.46846  0.97018  1.0000
  H   H636      1.0  0.50241  0.10838  0.77277  1.0000
  C   C362      1.0  0.83262  0.47118  0.95687  1.0000
  C   C363      1.0  0.95622  0.45194  0.66054  1.0000
  H   H637      1.0  0.48995  0.20330  0.98221  1.0000
  H   H638      1.0  0.83154  0.44222  0.96198  1.0000
  H   H639      1.0  0.54731  0.43939  0.65350  1.0000
  H   H640      1.0  0.96519  0.37644  0.73836  1.0000
  C   C364      1.0  0.49486  0.03660  0.82912  1.0000
  H   H641      1.0  0.49823  0.01649  0.81149  1.0000
  H   H642      1.0  0.49962  0.06939  0.88270  1.0000
  H   H643      1.0  0.51923  0.48051  0.96020  1.0000
  C   C365      1.0  0.90587  0.48593  0.92266  1.0000
  H   H644      1.0  0.54229  0.62217  0.06901  1.0000
  H   H645      1.0  0.52052  0.94687  0.23863  1.0000
  C   C366      1.0  0.53679  0.49607  0.20153  1.0000
  H   H646      1.0  0.65385  0.58959  0.99083  1.0000
  H   H647      1.0  0.49591  0.72889  0.25135  1.0000
  C   C367      1.0  0.52916  0.97852  0.00823  1.0000
  C   C368      1.0  0.49512  0.51522  0.98439  1.0000
  H   H648      1.0  0.56425  0.53556  0.00967  1.0000
  H   H649      1.0  0.94198  0.51575  0.98376  1.0000
  H   H650      1.0  0.55019  0.94892  0.13346  1.0000
  H   H651      1.0  0.58992  0.58874  0.00624  1.0000
  H   H652      1.0  0.48302  0.53605  0.04461  1.0000
  C   C369      1.0  0.51309  0.56416  0.04350  1.0000
  H   H653      1.0  0.49522  0.50036  0.00734  1.0000
  N   N23       1.0  0.52998  0.55836  0.98381  1.0000
  H   H654      1.0  0.53690  0.55707  0.05105  1.0000
  C   C370      1.0  0.51109  0.97544  0.12892  1.0000
  H   H655      1.0  0.48896  0.95649  0.08147  1.0000
  H   H656      1.0  0.48313  0.91590  0.10609  1.0000
  H   H657      1.0  0.54333  0.90840  0.31453  1.0000
  C   C371      1.0  0.98100  0.50286  0.13401  1.0000
  H   H658      1.0  0.92468  0.50284  0.14153  1.0000
  C   C372      1.0  0.50396  0.95041  0.98445  1.0000
  H   H659      1.0  0.50202  0.96988  0.15444  1.0000
  H   H660      1.0  0.62693  0.53509  0.99449  1.0000
  H   H661      1.0  0.52880  0.52508  0.12857  1.0000
  H   H662      1.0  0.57961  0.51464  0.09852  1.0000
  H   H663      1.0  0.53754  0.52323  0.21214  1.0000
  H   H664      1.0  0.56335  0.98454  0.10060  1.0000
  C   C373      1.0  0.49965  0.95817  0.24172  1.0000
  C   C374      1.0  0.51928  0.50447  0.10824  1.0000
  H   H665      1.0  0.49396  0.58413  0.00159  1.0000
  H   H666      1.0  0.55817  0.98104  0.01393  1.0000
  C   C375      1.0  0.56973  0.56036  0.99264  1.0000
  C   C376      1.0  0.52101  0.58177  0.00887  1.0000
  H   H667      1.0  0.50596  0.57984  0.09240  1.0000
  H   H668      1.0  0.54677  0.61343  0.01078  1.0000
  H   H669      1.0  0.50979  0.59258  0.29353  1.0000
  C   C377      1.0  0.94649  0.49571  0.15199  1.0000
  C   C378      1.0  0.51240  0.59378  0.06806  1.0000
  C   C379      1.0  0.55235  0.97785  0.12587  1.0000
  H   H670      1.0  0.48817  0.60093  0.06195  1.0000
  C   C380      1.0  0.54804  0.49856  0.09107  1.0000
  H   H671      1.0  0.55596  0.50544  0.17954  1.0000
  H   H672      1.0  0.62972  0.53505  0.39399  1.0000
  H   H673      1.0  0.57643  0.95468  0.37839  1.0000
  H   H674      1.0  0.55733  0.63043  0.45445  1.0000
  C   C381      1.0  0.97651  0.53648  0.53052  1.0000
  H   H675      1.0  0.60945  0.58387  0.37328  1.0000
  C   C382      1.0  0.50361  0.51419  0.56202  1.0000
  H   H676      1.0  0.50985  0.53687  0.54386  1.0000
  C   C383      1.0  0.55495  0.94560  0.35769  1.0000
  H   H677      1.0  0.49433  0.54802  0.59988  1.0000
  C   C384      1.0  0.62324  0.53578  0.36792  1.0000
  C   C385      1.0  0.48619  0.49150  0.61769  1.0000
  H   H678      1.0  0.53860  0.49582  0.36569  1.0000
  C   C386      1.0  0.59468  0.55282  0.36296  1.0000
  C   C387      1.0  0.48669  0.92807  0.47158  1.0000
  H   H679      1.0  0.48886  0.58770  0.40424  1.0000
  C   C388      1.0  0.55288  0.52521  0.37888  1.0000
  H   H680      1.0  0.56360  0.60589  0.38857  1.0000
  C   C389      1.0  0.54214  0.57838  0.40234  1.0000
  H   H681      1.0  0.48684  0.95947  0.38063  1.0000
  C   C390      1.0  0.49607  0.98039  0.35962  1.0000
  H   H682      1.0  0.65248  0.55515  0.35541  1.0000
  C   C391      1.0  0.97343  0.49628  0.53979  1.0000
  H   H683      1.0  0.52366  0.92637  0.36683  1.0000
  C   C392      1.0  0.50966  0.93891  0.50038  1.0000
  H   H684      1.0  0.51071  0.52660  0.33000  1.0000
  C   C393      1.0  0.53443  0.62923  0.43706  1.0000
  H   H685      1.0  0.55952  0.51860  0.40355  1.0000
  H   H686      1.0  0.50523  0.50818  0.44183  1.0000
  H   H687      1.0  0.54795  0.57806  0.33728  1.0000
  C   C394      1.0  0.51882  0.55275  0.34644  1.0000
  H   H688      1.0  0.60949  0.50454  0.35791  1.0000
  C   C395      1.0  0.96737  0.51593  0.64004  1.0000
  H   H689      1.0  0.52295  0.92103  0.50833  1.0000
  H   H690      1.0  0.95998  0.50106  0.42803  1.0000
  H   H691      1.0  0.94604  0.53389  0.53099  1.0000
  N   N24       1.0  0.52395  0.54165  0.38040  1.0000
  H   H692      1.0  0.49591  0.56489  0.43948  1.0000
  H   H693      1.0  0.56114  0.57548  0.42156  1.0000
  H   H694      1.0  0.53351  0.98046  0.54103  1.0000
  C   C396      1.0  0.55897  0.98350  0.34054  1.0000
  H   H695      1.0  0.51234  0.63475  0.45047  1.0000
  H   H696      1.0  0.54983  0.65366  0.41895  1.0000
  H   H697      1.0  0.49805  0.59672  0.35216  1.0000
  H   H698      1.0  0.95915  0.53933  0.63934  1.0000
  H   H699      1.0  0.59102  0.55451  0.33653  1.0000
  H   H700      1.0  0.59657  0.93905  0.32525  1.0000
  C   C397      1.0  0.51207  0.58784  0.42047  1.0000
  H   H701      1.0  0.56376  0.89445  0.34820  1.0000
  C   C398      1.0  0.56534  0.92047  0.33491  1.0000
  C   C399      1.0  0.51571  0.97267  0.51906  1.0000
  C   C400      1.0  0.49428  0.52039  0.59378  1.0000
  H   H702      1.0  0.96015  0.48873  0.56427  1.0000
  H   H703      1.0  0.48429  0.95985  0.33828  1.0000
  C   C401      1.0  0.48709  0.56646  0.34111  1.0000
  C   C402      1.0  0.48354  0.50799  0.39220  1.0000
  C   C403      1.0  0.97697  0.48761  0.41832  1.0000
  C   C404      1.0  0.48518  0.48619  0.42325  1.0000
  H   H704      1.0  0.54383  0.97304  0.31656  1.0000
  H   H705      1.0  0.56896  0.89784  0.79309  1.0000
  C   C405      1.0  0.88454  0.50743  0.87457  1.0000
  H   H706      1.0  0.89640  0.54332  0.81456  1.0000
  H   H707      1.0  0.48992  0.94551  0.79289  1.0000
  H   H708      1.0  0.54965  0.87144  0.83064  1.0000
  H   H709      1.0  0.53576  0.73667  0.76892  1.0000
  C   C406      1.0  0.97538  0.55905  0.74079  1.0000
  H   H710      1.0  0.53298  0.66125  0.78649  1.0000
  C   C407      1.0  0.50681  0.84712  0.79084  1.0000
  H   H711      1.0  0.57564  0.53583  0.77795  1.0000
  C   C408      1.0  0.48235  0.50862  0.82355  1.0000
  H   H712      1.0  0.49416  0.66708  0.87533  1.0000
  H   H713      1.0  0.87506  0.56661  0.84013  1.0000
  C   C409      1.0  0.52083  0.63891  0.80643  1.0000
  C   C410      1.0  0.86832  0.53869  0.82666  1.0000
  H   H714      1.0  0.52076  0.83346  0.72189  1.0000
  H   H715      1.0  0.82428  0.49948  0.86108  1.0000
  H   H716      1.0  0.48545  0.78617  0.73859  1.0000
  H   H717      1.0  0.54223  0.52499  0.84125  1.0000
  C   C411      1.0  0.56821  0.63664  0.91373  1.0000
  H   H718      1.0  0.51369  0.93163  0.97219  1.0000
  H   H719      1.0  0.48563  0.81892  0.67054  1.0000
  C   C412      1.0  0.57425  0.57550  0.74219  1.0000
  C   C413      1.0  0.51012  0.50301  0.84248  1.0000
  H   H720      1.0  0.84312  0.51329  0.91903  1.0000
  H   H721      1.0  0.51958  0.88543  0.74961  1.0000
  C   C414      1.0  0.50513  0.75084  0.80600  1.0000
  H   H722      1.0  0.48178  0.83114  0.80834  1.0000
  H   H723      1.0  0.51775  0.82639  0.78307  1.0000
  H   H724      1.0  0.84514  0.53302  0.80785  1.0000
  C   C415      1.0  0.55921  0.62301  0.94885  1.0000
  H   H725      1.0  0.89802  0.53891  0.88397  1.0000
  C   C416      1.0  0.93230  0.53019  0.93476  1.0000
  H   H726      1.0  0.48145  0.60150  0.85826  1.0000
  C   C417      1.0  0.48764  0.81093  0.72291  1.0000
  H   H727      1.0  0.56686  0.57564  0.71625  1.0000
  C   C418      1.0  0.85189  0.50244  0.84940  1.0000
  H   H728      1.0  0.52910  0.78759  0.68073  1.0000
  H   H729      1.0  0.98002  0.52071  0.95509  1.0000
  H   H730      1.0  0.53267  0.90516  0.81614  1.0000
  H   H731      1.0  0.58649  0.67022  0.91272  1.0000
  H   H732      1.0  0.90940  0.50604  0.86128  1.0000
  C   C419      1.0  0.54167  0.88272  0.80869  1.0000
  H   H733      1.0  0.52145  0.61130  0.79868  1.0000
  H   H734      1.0  0.53319  0.77476  0.81622  1.0000
  H   H735      1.0  0.54072  0.65235  0.82790  1.0000
  H   H736      1.0  0.50057  0.70049  0.92727  1.0000
  C   C420      1.0  0.52496  0.49950  0.74474  1.0000
  H   H737      1.0  0.49315  0.53489  0.80825  1.0000
  H   H738      1.0  0.49326  0.92849  0.65744  1.0000
  H   H739      1.0  0.53957  0.62652  0.90001  1.0000
  H   H740      1.0  0.51035  0.88398  0.69003  1.0000
  H   H741      1.0  0.53318  0.95056  0.88103  1.0000
  C   C421      1.0  0.49179  0.86174  0.76179  1.0000
  C   C422      1.0  0.50661  0.72898  0.77921  1.0000
  H   H742      1.0  0.60628  0.59955  0.74633  1.0000
  H   H743      1.0  0.94934  0.55590  0.75521  1.0000
  H   H744      1.0  0.91334  0.54316  0.94285  1.0000
  C   C423      1.0  0.53099  0.57647  0.95129  1.0000
  H   H745      1.0  0.79403  0.49745  0.96652  1.0000
  C   C424      1.0  0.49547  0.76896  0.67878  1.0000
  H   H746      1.0  0.52318  0.96887  0.91824  1.0000
  H   H747      1.0  0.57930  0.53106  0.94998  1.0000
  H   H748      1.0  0.55437  0.58266  0.75707  1.0000
  C   C425      1.0  0.54031  0.97803  0.89528  1.0000
  H   H749      1.0  0.95211  0.54938  0.91489  1.0000
  H   H750      1.0  0.50571  0.50525  0.76164  1.0000
  H   H751      1.0  0.95662  0.49645  0.74720  1.0000
  H   H752      1.0  0.59209  0.53043  0.73873  1.0000
  C   C426      1.0  0.49364  0.48642  0.95735  1.0000
  H   H753      1.0  0.49452  0.49860  0.93296  1.0000
  H   H754      1.0  0.60620  0.58515  0.94841  1.0000
  H   H755      1.0  0.51579  0.50400  0.72024  1.0000
  H   H756      1.0  0.96694  0.55630  0.71486  1.0000
  C   C427      1.0  0.96014  0.53297  0.96256  1.0000
  H   H757      1.0  0.57424  0.49342  0.69490  1.0000
  C   C428      1.0  0.48445  0.88803  0.69718  1.0000
  H   H758      1.0  0.49610  0.91410  0.71417  1.0000
  H   H759      1.0  0.48463  0.74213  0.69469  1.0000
  H   H760      1.0  0.85860  0.49509  0.97073  1.0000
  H   H761      1.0  0.58588  0.62402  0.90211  1.0000
  H   H762      1.0  0.97983  0.56511  0.96985  1.0000
  H   H763      1.0  0.48739  0.75809  0.65351  1.0000
  C   C429      1.0  0.56893  0.53443  0.75171  1.0000
  H   H764      1.0  0.49989  0.56985  0.94441  1.0000
  H   H765      1.0  0.53986  0.56203  0.93209  1.0000
  H   H766      1.0  0.54419  0.63867  0.96008  1.0000
  C   C430      1.0  0.59610  0.55887  0.96469  1.0000
  H   H767      1.0  0.58850  0.63318  0.96161  1.0000
  H   H768      1.0  0.65260  0.55854  0.95749  1.0000
  C   C431      1.0  0.48336  0.98435  0.86823  1.0000
  C   C432      1.0  0.63466  0.56064  0.97777  1.0000
