data_image0
_chemical_formula_structural       FeS2FeS2FeSFeS3FeSHFeSFeSFeSHSFeS2FeS2HFeS3H4CHCH4CHC7H4C6H9C2H2CHCH5CHCNCHC4H9CH4CH3CH2C2H4CH3CHC2H3CH4CHC3H4CH4CH3C3HSH2NC6H2CH3CHC2HCH2C2H4CH4CH5CH13CHC3H10C2HNCH2C2H2C2HCH3NH3CH3CH2CH3C2H3CH4CHC2HC2H6CHCH2C2HSCHCH2CHFeH2C2HFeCSFeS2FeSCS2CHFeSHFeS2FeSFeS3HCHFeS2C3H2C6H4CH3C3H2CHC2H2C3HSHC2H2CHCH5SCNH2CSC2HCH2CHSH5CH2CH7CH3CH3C7NH16C2H3C2HNCSHCHC2H4CSH2CHCHC2H2CH3CHC2HC2H5CH6CH5NH5CH5CHCH6CH2C2HCHFeH2C2H3CHCHCHCSHC2SH2SFeHSFeS2FeHFeCS2CH2CH3C7H6CSC2NH3C2H3CHC6H9CH2CH6CHCHCHCHC2H6SH3CNC2HCH3CH5CNHCH3C3H8SH5CH3CHCH4C2HCHC3HCH2NC4H2SH2SHC2HSC2H4FeSHFeSHFeSFeS2HSHFeSHFeSC2H5SHC7H2C6H7SC3H2CFeHNC9HC2H12CH7CH5SCH6C5HC3HC2H3CH2SHCH9C2HCH9CHCH2CHCH2C2S2H2NHCH4C2H2CNHCH7NSCH2CH3CH2CHCH5CHSH2CH2CHC2HSCFeS2C2FeS2FeHSFeSCS3HCH3CH3C3H3CH6SC6H5NHFeCH2CH8CH2CH3CH3CH2CH4CHCH5C2H3C2H3N2CHC2H2CHFeCHCH3C2HCFeCH2CH2CH3CHC2H5NC2HC8H4SHCHCH5CH12CHCH3C3HCHC2H2CHCH8SHNH2CHFeHCH3C3HCH2SFeCH4CHCHSHFeC2HFeS3FeS2FeS2HSCHSHFeSHSHC6H4CHC2H2C6H6SCH8CHCH3NC12H28NH4C2HC3H2CHCH5CH5CHCNC2H2NHC9HFeCH9C2H10CH4C2HCHFeH2CH2CH2C2H3FeH2CHC2H2CH2C2HCHCHCH4CHFeH3CH2CH2CSH2CHC3H2C2H2FeS2FeS2Fe2S3FeS2FeS2FeSFeHS3HSFeH3FeSHSHCH2CH4CH3C6H4C6H4C6H5CHC2H2CH5CH4CHCH2N2CSHCHC2NC2HCH10CH4NHCH4C3H4CH2CH10CHCH5CHC2H2CFeHCH8CH4C3H3C4H2C3H2C2H4C2HNH3CHC2H3CHCHCH2C2NCH3CH2C2H4C2H2CH3CH2C2FeCSH4CHCH3FeHCHCH7C2H8CH4CHC3H2C4H3CHC2HSFeS2FeSFeS2CSC3SFeS2FeS2FeS2FeSFeS3C6H4C2H4CH5SH2CHC6H4C2H5FeNCHC2HC2HCH2C2H3C3H5CHCHCH2C3H2C2H4CH4CHNC8HCH13CH2CHCH4CHCH3CH6CHC2HCHCH5CH3NH4C2H3CHCH2CSH2C2H5CH6FeSFeS2FeSFeS4FeS2FeS2FeCFeS3FeS2FeS2C2H2C7H4CH3C3H2C2H3CH3C7H4C2H2CH8CH2C2H6CH2C2H2CH7CH2CNC12H29CHCHNH3C2H4CH3CHCH3CH6CH5CH3NH3CHCH2C7H11CNCHCSHNCHC5HCH5CH2CH2CHCHCNH2CH6C2SH2CHCH5C2H2CH2C2SFeS2FeSHFeSFeS3FeS2FeSFeSFeS3FeS2Fe2HCS2CHCH5C7H6CH3SCHCH2C6H4C6H7C3H3CH3CHCH5CH2NCHC7H5CH10CH5CHCHCHCH10CH9CHCH3C2HC2H8CH2C2H3CNH2CH2C2H2CH6C3HC2HCH2CH3CNH2NH2CH5CH2CH2C2NH2CHC2H5C3HC6H2FeCHCH6CH7SHSCSCFeSHS2Fe2S2FeHFeS2FeS2FeS2HC6H3CHC7H6CH4CH5C4H4C2NHCHCHC2H6C2H2FeCH4C2H2CH4CH2CH5SH3CH2CHCHNCHC3HCH3SH5C2HCH4FeCH3C3H2C2H8NCH2CHCH2CH4CH6C2HCHCH7C3H2CNHSCH3CH3C2HC2H3NC2H2C2H5CHCFeH3CHCH3CH5CHC2HCHCSH2SFeSFeS2H2SFeS2FeSFeS4HC2H2FeCHCH4C2HCH2CH3C6H4C2H2CH2C2FeCH3C2H2SHCH5C3FeH6CH5C3HC2H4CH3CH4CHCHCHCHC3H6C2H2CH6CH4NCH6C2H2C4H2CH6CHCH2CH2CHCH5CHNCH6CH6CNC3H4C2H2CHC2H2SFeSHFeS2FeSFeS2CHCFeSFeCSHCH2CNSCH10C2H2C6H7CH2C2HCHC2H3NCHCH6CH4CHCHC2H8CHCHNH3CH2C3HCSCH6CH6CH2CHC3H2C2HSH2CH2CSHCHCHCH2CH2CHCH2CHCH6CH6CH4CNSCH2C2HC2H6CH2CHCH2C2H2SH2CH2C2SHC2H5CHCHCH4SFeSCFeSCFeSFeSHSH3CHC2NH2CHCH2NH3C6H5C3H3CH4CSHCH2CHC2HCH2SH3CH2CH2NCH2NC8H20CH2CH4C3SC2HC2H5SC2H8C2H4CSCH4CH2SHCHCHCHCHC2H2SHC2H2SCH2C2HC2HC3HSHCSH2CHCHC2H10NFeHC2SFeSHFeSFeS3HFeSCFeS2FeSFeS3FeS2H3C6H5C3HC5H2SC5H3C4H2C2HCH2C2H4C3FeCHCHCHFeCH3SHCH4SHCH7CHCNH2C3H2NH6NH2CSHC2H2NC8HC3H20CH8C3H2CHCH4C4H5NSH3CHCH2C2H2CH4CHC2HNH6CH3CHCH5CH5SHCHCH6CH6C2H2CFeS2FeS2FeHCS2FeS2FeS2FeSFeS3FeS2HSFeSFeS2C3HCH2C6H5C3H2C6H4CH3CHCHCHCH9C2H2NHC4HNCHCH2CH2CH5C3H3CH3SHC3H4CSHCHC3H2CHCHCH8CH3CH3C2H3CH3CHC2H4CH2C3NC7H15C2H3CHCH3CH7NH2C2H2CH4CH3C3H2CH3FeHC3H2CH4CHCH14C2HCH3C2H2
_chemical_formula_sum              "Fe144 S288 H2304 C1296 N72"
_cell_length_a       59.0076
_cell_length_b       59.1461
_cell_length_c       37.4598
_cell_angle_alpha    90.3463
_cell_angle_beta     92.0087
_cell_angle_gamma    118.57

_space_group_name_H-M_alt    "P 1"
_space_group_IT_number       1

loop_
  _space_group_symop_operation_xyz
  'x, y, z'

loop_
  _atom_site_type_symbol
  _atom_site_label
  _atom_site_symmetry_multiplicity
  _atom_site_fract_x
  _atom_site_fract_y
  _atom_site_fract_z
  _atom_site_occupancy
  Fe  Fe1       1.0  0.17735  0.09553  0.06617  1.0000
  S   S1        1.0  0.20745  0.12993  0.03817  1.0000
  S   S2        1.0  0.14952  0.05715  0.03740  1.0000
  Fe  Fe2       1.0  0.18423  0.12785  0.13495  1.0000
  S   S3        1.0  0.21433  0.16374  0.11079  1.0000
  S   S4        1.0  0.17566  0.12934  0.19369  1.0000
  Fe  Fe3       1.0  0.18819  0.15138  0.06111  1.0000
  S   S5        1.0  0.17979  0.18196  0.03611  1.0000
  Fe  Fe4       1.0  0.23106  0.13914  0.09067  1.0000
  S   S6        1.0  0.27542  0.15616  0.09252  1.0000
  S   S7        1.0  0.15703  0.11691  0.08692  1.0000
  S   S8        1.0  0.20198  0.10333  0.11720  1.0000
  Fe  Fe5       1.0  0.45062  0.18829  0.16845  1.0000
  S   S9        1.0  0.41998  0.15127  0.18992  1.0000
  H   H1        1.0  0.31600  0.06965  0.14002  1.0000
  Fe  Fe6       1.0  0.45663  0.21792  0.23966  1.0000
  S   S10       1.0  0.42571  0.18246  0.26453  1.0000
  Fe  Fe7       1.0  0.44535  0.16185  0.24029  1.0000
  S   S11       1.0  0.45005  0.13070  0.27045  1.0000
  Fe  Fe8       1.0  0.40298  0.17510  0.21171  1.0000
  S   S12       1.0  0.35862  0.15762  0.20927  1.0000
  H   H2        1.0  0.27222  0.17174  0.18440  1.0000
  S   S13       1.0  0.43266  0.21212  0.18844  1.0000
  Fe  Fe9       1.0  0.10860  0.18497  0.32461  1.0000
  S   S14       1.0  0.14503  0.21360  0.35363  1.0000
  S   S15       1.0  0.10888  0.17484  0.26558  1.0000
  Fe  Fe10      1.0  0.07551  0.18388  0.38773  1.0000
  S   S16       1.0  0.11054  0.21329  0.41961  1.0000
  S   S17       1.0  0.03467  0.15988  0.40870  1.0000
  H   H3        1.0  0.14478  0.01579  0.10641  1.0000
  Fe  Fe11      1.0  0.12935  0.18978  0.40243  1.0000
  S   S18       1.0  0.15731  0.18279  0.43903  1.0000
  S   S19       1.0  0.08681  0.20662  0.33694  1.0000
  S   S20       1.0  0.09411  0.15959  0.37231  1.0000
  H   H4        1.0  0.45696  0.17824  0.03376  1.0000
  H   H5        1.0  0.24364  0.17391  0.17817  1.0000
  H   H6        1.0  0.07099  0.17227  0.04551  1.0000
  H   H7        1.0  0.06545  0.09146  0.05074  1.0000
  C   C1        1.0  0.47406  0.17590  0.08451  1.0000
  H   H8        1.0  0.15571  0.19992  0.08732  1.0000
  C   C2        1.0  0.23237  0.18800  0.28206  1.0000
  H   H9        1.0  0.36078  0.15388  0.08928  1.0000
  H   H10       1.0  0.18094  0.04706  0.40220  1.0000
  H   H11       1.0  0.17840  0.00972  0.43581  1.0000
  H   H12       1.0  0.42389  0.13944  0.37209  1.0000
  C   C3        1.0  0.09859  0.23063  0.23504  1.0000
  H   H13       1.0  0.22817  0.12036  0.45337  1.0000
  C   C4        1.0  0.47509  0.03787  0.39860  1.0000
  C   C5        1.0  0.15785  0.14316  0.21291  1.0000
  C   C6        1.0  0.15780  0.14506  0.25037  1.0000
  C   C7        1.0  0.14343  0.15526  0.26693  1.0000
  C   C8        1.0  0.12860  0.16332  0.24614  1.0000
  C   C9        1.0  0.12881  0.16163  0.20864  1.0000
  C   C10       1.0  0.14346  0.15173  0.19207  1.0000
  H   H14       1.0  0.16875  0.13836  0.26673  1.0000
  H   H15       1.0  0.14338  0.15637  0.29577  1.0000
  H   H16       1.0  0.11742  0.16784  0.19235  1.0000
  H   H17       1.0  0.14330  0.15031  0.16326  1.0000
  C   C11       1.0  0.33603  0.15762  0.17622  1.0000
  C   C12       1.0  0.30957  0.14013  0.17907  1.0000
  C   C13       1.0  0.29090  0.13919  0.15354  1.0000
  C   C14       1.0  0.29829  0.15610  0.12509  1.0000
  C   C15       1.0  0.32477  0.17351  0.12211  1.0000
  C   C16       1.0  0.34351  0.17434  0.14750  1.0000
  H   H18       1.0  0.30353  0.12690  0.20092  1.0000
  H   H19       1.0  0.27079  0.12513  0.15548  1.0000
  H   H20       1.0  0.33081  0.18664  0.10014  1.0000
  H   H21       1.0  0.36370  0.18802  0.14496  1.0000
  H   H22       1.0  0.06115  0.14456  0.09290  1.0000
  H   H23       1.0  0.30695  0.18397  0.21808  1.0000
  H   H24       1.0  0.36947  0.11976  0.14086  1.0000
  H   H25       1.0  0.20595  0.23649  0.19087  1.0000
  H   H26       1.0  0.19297  0.17493  0.48473  1.0000
  C   C17       1.0  0.02226  0.19047  0.45278  1.0000
  C   C18       1.0  0.01672  0.16565  0.44166  1.0000
  H   H27       1.0  0.24244  0.14489  0.26816  1.0000
  H   H28       1.0  0.34922  0.12248  0.04187  1.0000
  C   C19       1.0  0.11357  0.17962  0.08517  1.0000
  H   H29       1.0  0.03814  0.20702  0.44150  1.0000
  C   C20       1.0  0.32614  0.19331  0.26955  1.0000
  H   H30       1.0  0.04172  0.14278  0.03589  1.0000
  H   H31       1.0  0.38449  0.17058  0.03704  1.0000
  H   H32       1.0  0.22640  0.08843  0.20796  1.0000
  H   H33       1.0  0.11438  0.06544  0.45641  1.0000
  H   H34       1.0  0.20412  0.09769  0.22623  1.0000
  C   C21       1.0  0.99582  0.14443  0.45662  1.0000
  H   H35       1.0  0.26185  0.13289  0.21488  1.0000
  C   C22       1.0  0.28145  0.18837  0.25646  1.0000
  N   N1        1.0  0.08430  0.13259  0.06194  1.0000
  C   C23       1.0  0.06415  0.12761  0.08905  1.0000
  H   H36       1.0  0.41293  0.14022  0.11496  1.0000
  C   C24       1.0  0.11080  0.15298  0.07504  1.0000
  C   C25       1.0  0.06966  0.12030  0.12693  1.0000
  C   C26       1.0  0.18213  0.01632  0.99381  1.0000
  C   C27       1.0  0.04893  0.11764  0.15253  1.0000
  H   H37       1.0  0.45869  0.22444  0.36815  1.0000
  H   H38       1.0  0.04505  0.11191  0.07882  1.0000
  H   H39       1.0  0.25464  0.21316  0.24104  1.0000
  H   H40       1.0  0.09288  0.10275  0.08102  1.0000
  H   H41       1.0  0.11808  0.14602  0.09798  1.0000
  H   H42       1.0  0.03626  0.08833  0.44700  1.0000
  H   H43       1.0  0.06978  0.10161  0.12617  1.0000
  H   H44       1.0  0.08849  0.13527  0.13863  1.0000
  H   H45       1.0  0.09408  0.15057  0.01035  1.0000
  C   C28       1.0  0.17900  0.03506  0.01342  1.0000
  H   H46       1.0  0.38854  0.16212  0.11765  1.0000
  H   H47       1.0  0.05330  0.11228  0.17929  1.0000
  H   H48       1.0  0.17438  0.23717  0.29444  1.0000
  H   H49       1.0  0.19794  0.07430  0.44959  1.0000
  C   C29       1.0  0.31703  0.08879  0.14347  1.0000
  H   H50       1.0  0.12292  0.12144  0.03199  1.0000
  H   H51       1.0  0.20218  0.12824  0.45217  1.0000
  H   H52       1.0  0.45357  0.16789  0.41972  1.0000
  C   C30       1.0  0.08530  0.10772  0.05637  1.0000
  H   H53       1.0  0.12501  0.15673  0.05428  1.0000
  H   H54       1.0  0.21897  0.14448  0.23735  1.0000
  C   C31       1.0  0.36385  0.11622  0.04888  1.0000
  C   C32       1.0  0.43032  0.10666  0.08537  1.0000
  H   H55       1.0  0.43691  0.11452  0.05857  1.0000
  H   H56       1.0  0.29704  0.08609  0.14291  1.0000
  H   H57       1.0  0.38240  0.20207  0.07943  1.0000
  H   H58       1.0  0.44434  0.11993  0.10619  1.0000
  C   C33       1.0  0.44404  0.05145  0.00121  1.0000
  H   H59       1.0  0.07004  0.19618  0.48188  1.0000
  H   H60       1.0  0.06386  0.12210  0.00996  1.0000
  H   H61       1.0  0.99538  0.09328  0.26519  1.0000
  C   C34       1.0  0.99363  0.10818  0.21254  1.0000
  H   H62       1.0  0.07460  0.11515  0.48437  1.0000
  C   C35       1.0  0.47799  0.11469  0.31401  1.0000
  C   C36       1.0  0.15581  0.03607  0.01020  1.0000
  H   H63       1.0  0.33980  0.18633  0.26188  1.0000
  H   H64       1.0  0.39780  0.09503  0.11810  1.0000
  H   H65       1.0  0.17931  0.00557  0.38829  1.0000
  C   C37       1.0  0.11580  0.04780  0.44987  1.0000
  H   H66       1.0  0.99372  0.09162  0.19861  1.0000
  H   H67       1.0  0.35847  0.09179  0.11270  1.0000
  H   H68       1.0  0.37077  0.98896  0.34529  1.0000
  H   H69       1.0  0.11289  0.13241  0.45167  1.0000
  C   C38       1.0  0.07669  0.13975  0.02638  1.0000
  H   H70       1.0  0.27035  0.20215  0.12609  1.0000
  C   C39       1.0  0.26223  0.18224  0.19418  1.0000
  C   C40       1.0  0.10070  0.08087  0.02173  1.0000
  C   C41       1.0  0.00639  0.11095  0.24971  1.0000
  H   H71       1.0  0.23067  0.09925  0.25404  1.0000
  H   H72       1.0  0.11393  0.08148  0.00089  1.0000
  H   H73       1.0  0.21915  0.16738  0.28693  1.0000
  H   H74       1.0  0.47514  0.99633  0.07914  1.0000
  C   C42       1.0  0.13957  0.19677  0.10453  1.0000
  H   H75       1.0  0.08074  0.06610  0.01350  1.0000
  H   H76       1.0  0.10664  0.07516  0.04711  1.0000
  H   H77       1.0  0.99140  0.12514  0.44856  1.0000
  H   H78       1.0  0.41261  0.20747  0.10107  1.0000
  C   C43       1.0  0.46999  0.17265  0.04712  1.0000
  H   H79       1.0  0.47664  0.07601  0.12563  1.0000
  H   H80       1.0  0.11270  0.18958  0.06055  1.0000
  H   H81       1.0  0.15260  0.02893  0.45902  1.0000
  C   C44       1.0  0.33195  0.10665  0.11361  1.0000
  C   C45       1.0  0.30132  0.17960  0.24615  1.0000
  C   C46       1.0  0.19015  0.08757  0.44261  1.0000
  H   H82       1.0  0.38964  0.08925  0.07103  1.0000
  S   S21       1.0  0.45798  0.18967  0.10865  1.0000
  H   H83       1.0  0.98401  0.15719  0.10165  1.0000
  H   H84       1.0  0.09845  0.17808  0.10316  1.0000
  N   N2        1.0  0.14122  0.05483  0.43298  1.0000
  C   C47       1.0  0.13944  0.06323  0.39544  1.0000
  C   C48       1.0  0.14493  0.03121  0.43238  1.0000
  C   C49       1.0  0.04266  0.10925  0.44966  1.0000
  C   C50       1.0  0.16229  0.07633  0.45552  1.0000
  C   C51       1.0  0.13556  0.08736  0.39223  1.0000
  C   C52       1.0  0.23967  0.14947  0.24008  1.0000
  H   H85       1.0  0.44023  0.12391  0.39419  1.0000
  H   H86       1.0  0.22527  0.18630  0.22465  1.0000
  C   C53       1.0  0.13360  0.09370  0.35310  1.0000
  H   H87       1.0  0.45332  0.99450  0.44496  1.0000
  H   H88       1.0  0.12327  0.04704  0.37995  1.0000
  H   H89       1.0  0.15690  0.06750  0.38062  1.0000
  C   C54       1.0  0.36024  0.11134  0.11406  1.0000
  H   H90       1.0  0.39291  0.11124  0.01931  1.0000
  C   C55       1.0  0.47076  0.05561  0.01357  1.0000
  C   C56       1.0  0.24234  0.19202  0.24353  1.0000
  H   H91       1.0  0.32203  0.18922  0.29819  1.0000
  C   C57       1.0  0.40082  0.20175  0.07555  1.0000
  H   H92       1.0  0.11758  0.08433  0.40470  1.0000
  H   H93       1.0  0.15211  0.10454  0.40516  1.0000
  C   C58       1.0  0.12921  0.13411  0.46780  1.0000
  C   C59       1.0  0.05868  0.12008  0.48450  1.0000
  H   H94       1.0  0.15207  0.02598  0.37660  1.0000
  H   H95       1.0  0.43506  0.01015  0.43581  1.0000
  H   H96       1.0  0.17115  0.22525  0.23410  1.0000
  H   H97       1.0  0.42959  0.04055  0.02128  1.0000
  C   C60       1.0  0.00672  0.19393  0.47783  1.0000
  H   H98       1.0  0.15153  0.09783  0.33943  1.0000
  H   H99       1.0  0.11681  0.07745  0.33890  1.0000
  H   H100      1.0  0.13093  0.11105  0.35163  1.0000
  H   H101      1.0  0.02636  0.11397  0.24722  1.0000
  C   C61       1.0  0.15310  0.15630  0.46573  1.0000
  H   H102      1.0  0.29146  0.20979  0.25733  1.0000
  H   H103      1.0  0.00601  0.12595  0.19810  1.0000
  H   H104      1.0  0.36976  0.01247  0.37508  1.0000
  H   H105      1.0  0.35271  0.09483  0.05020  1.0000
  H   H106      1.0  0.02959  0.10240  0.14266  1.0000
  C   C62       1.0  0.12983  0.99532  0.10875  1.0000
  H   H107      1.0  0.42994  0.08776  0.08713  1.0000
  H   H108      1.0  0.04864  0.13620  0.15554  1.0000
  H   H109      1.0  0.20092  0.19652  0.26883  1.0000
  H   H110      1.0  0.14114  0.21580  0.11121  1.0000
  H   H111      1.0  0.14142  0.18786  0.12970  1.0000
  H   H112      1.0  0.12598  0.01347  0.42764  1.0000
  H   H113      1.0  0.19995  0.01540  0.99713  1.0000
  H   H114      1.0  0.44535  0.00648  0.36694  1.0000
  H   H115      1.0  0.41149  0.01315  0.38265  1.0000
  H   H116      1.0  0.29715  0.23337  0.13752  1.0000
  H   H117      1.0  0.46360  0.18128  0.37643  1.0000
  H   H118      1.0  0.24869  0.19511  0.30219  1.0000
  H   H119      1.0  0.29588  0.22130  0.20096  1.0000
  C   C63       1.0  0.10239  0.10737  0.02597  1.0000
  H   H120      1.0  0.42398  0.20993  0.36512  1.0000
  C   C64       1.0  0.47771  0.00658  0.10519  1.0000
  C   C65       1.0  0.39563  0.17498  0.06299  1.0000
  C   C66       1.0  0.37984  0.15446  0.09037  1.0000
  H   H121      1.0  0.09926  0.03617  0.43071  1.0000
  H   H122      1.0  0.26644  0.22072  0.18476  1.0000
  H   H123      1.0  0.05429  0.11904  0.42638  1.0000
  H   H124      1.0  0.41457  0.17610  0.05873  1.0000
  H   H125      1.0  0.27698  0.18287  0.28471  1.0000
  H   H126      1.0  0.41177  0.21607  0.05523  1.0000
  H   H127      1.0  0.32154  0.09767  0.08784  1.0000
  H   H128      1.0  0.17677  0.20771  0.17786  1.0000
  H   H129      1.0  0.11238  0.99491  0.11968  1.0000
  H   H130      1.0  0.29341  0.15871  0.25030  1.0000
  C   C67       1.0  0.24185  0.12967  0.21509  1.0000
  C   C68       1.0  0.22468  0.10210  0.22673  1.0000
  H   H131      1.0  0.23538  0.13101  0.18734  1.0000
  N   N3        1.0  0.37689  0.12784  0.08479  1.0000
  C   C69       1.0  0.40314  0.12946  0.08974  1.0000
  H   H132      1.0  0.15782  0.09241  0.45881  1.0000
  H   H133      1.0  0.14293  0.23582  0.26064  1.0000
  C   C70       1.0  0.06165  0.15530  0.02711  1.0000
  C   C71       1.0  0.20794  0.11370  0.46080  1.0000
  H   H134      1.0  0.15856  0.21408  0.01183  1.0000
  H   H135      1.0  0.19119  0.09066  0.41350  1.0000
  C   C72       1.0  0.46204  0.16594  0.39467  1.0000
  C   C73       1.0  0.27829  0.21078  0.18339  1.0000
  H   H136      1.0  0.46075  0.02940  0.08644  1.0000
  C   C74       1.0  0.21746  0.20275  0.28852  1.0000
  H   H137      1.0  0.09919  0.21244  0.22980  1.0000
  H   H138      1.0  0.19430  0.04829  0.03170  1.0000
  H   H139      1.0  0.32644  0.09738  0.16997  1.0000
  N   N4        1.0  0.25686  0.17784  0.23339  1.0000
  H   H140      1.0  0.20974  0.19889  0.31573  1.0000
  H   H141      1.0  0.33111  0.12471  0.11790  1.0000
  H   H142      1.0  0.41617  0.14099  0.06867  1.0000
  C   C75       1.0  0.40339  0.10334  0.09125  1.0000
  H   H143      1.0  0.06954  0.02167  0.48514  1.0000
  H   H144      1.0  0.33560  0.21444  0.26572  1.0000
  H   H145      1.0  0.16290  0.06996  0.48319  1.0000
  C   C76       1.0  0.05928  0.16482  0.99001  1.0000
  H   H146      1.0  0.46479  0.06579  0.06623  1.0000
  H   H147      1.0  0.04723  0.17459  0.99092  1.0000
  C   C77       1.0  0.44044  0.99626  0.42401  1.0000
  H   H148      1.0  0.00754  0.12779  0.26463  1.0000
  H   H149      1.0  0.44982  0.13774  0.35080  1.0000
  H   H150      1.0  0.46908  0.03639  0.01818  1.0000
  C   C78       1.0  0.16215  0.02939  0.40329  1.0000
  C   C79       1.0  0.45735  0.00905  0.39165  1.0000
  H   H151      1.0  0.39375  0.00292  0.42232  1.0000
  H   H152      1.0  0.46361  0.04817  0.40070  1.0000
  H   H153      1.0  0.30078  0.20507  0.14288  1.0000
  C   C80       1.0  0.15773  0.17797  0.00001  1.0000
  H   H154      1.0  0.41248  0.99289  0.48227  1.0000
  H   H155      1.0  0.46980  0.00008  0.38668  1.0000
  H   H156      1.0  0.10566  0.01204  0.47818  1.0000
  H   H157      1.0  0.23034  0.22379  0.28642  1.0000
  C   C81       1.0  0.28709  0.21286  0.14514  1.0000
  H   H158      1.0  0.09299  0.23104  0.26294  1.0000
  C   C82       1.0  0.44289  0.14014  0.37695  1.0000
  C   C83       1.0  0.38156  0.12169  0.01668  1.0000
  H   H159      1.0  0.43984  0.22530  0.42666  1.0000
  C   C84       1.0  0.18545  0.22891  0.18166  1.0000
  C   C85       1.0  0.98072  0.14796  0.48228  1.0000
  H   H160      1.0  0.05486  0.15449  0.47796  1.0000
  H   H161      1.0  0.46099  0.99465  0.12163  1.0000
  H   H162      1.0  0.15015  0.22631  0.19959  1.0000
  H   H163      1.0  0.11703  0.99297  0.05422  1.0000
  H   H164      1.0  0.44445  0.07021  0.99690  1.0000
  H   H165      1.0  0.02528  0.11192  0.44947  1.0000
  C   C86       1.0  0.16754  0.00690  0.40986  1.0000
  H   H166      1.0  0.98338  0.12811  0.15222  1.0000
  C   C87       1.0  0.17066  0.23511  0.20935  1.0000
  H   H167      1.0  0.08557  0.15856  0.46863  1.0000
  H   H168      1.0  0.01087  0.21322  0.48565  1.0000
  C   C88       1.0  0.17433  0.15793  0.48623  1.0000
  C   C89       1.0  0.15035  0.19710  0.99448  1.0000
  H   H169      1.0  0.08366  0.23106  0.21661  1.0000
  S   S22       1.0  0.47723  0.19730  0.21729  1.0000
  C   C90       1.0  0.39454  0.99704  0.39453  1.0000
  H   H170      1.0  0.39552  0.14233  0.01449  1.0000
  C   C91       1.0  0.44212  0.22835  0.36989  1.0000
  H   H171      1.0  0.14916  0.98846  0.41006  1.0000
  H   H172      1.0  0.46052  0.09632  0.31331  1.0000
  C   C92       1.0  0.11036  0.03215  0.48464  1.0000
  H   H173      1.0  0.18459  0.23735  0.15556  1.0000
  Fe  Fe12      1.0  0.12315  0.23464  0.36759  1.0000
  H   H174      1.0  0.42730  0.23522  0.47614  1.0000
  H   H175      1.0  0.09647  0.11201  0.99980  1.0000
  C   C93       1.0  0.06990  0.14975  0.48806  1.0000
  C   C94       1.0  0.37043  0.99403  0.37381  1.0000
  H   H176      1.0  0.11220  0.23736  0.48990  1.0000
  Fe  Fe13      1.0  0.04737  0.19509  0.82987  1.0000
  C   C95       1.0  0.09569  0.23258  0.50719  1.0000
  S   S23       1.0  0.03649  0.18003  0.77218  1.0000
  Fe  Fe14      1.0  0.08070  0.19331  0.89375  1.0000
  S   S24       1.0  0.07625  0.22345  0.92516  1.0000
  S   S25       1.0  0.09893  0.16805  0.90876  1.0000
  Fe  Fe15      1.0  0.03410  0.20101  0.90690  1.0000
  S   S26       1.0  0.99950  0.19133  0.94232  1.0000
  C   C96       1.0  0.44778  0.16621  0.81451  1.0000
  S   S27       1.0  0.03842  0.17015  0.87784  1.0000
  S   S28       1.0  0.09020  0.21588  0.84321  1.0000
  C   C97       1.0  0.03157  0.14691  0.53759  1.0000
  H   H177      1.0  0.44859  0.22073  0.86422  1.0000
  Fe  Fe16      1.0  0.18034  0.03135  0.55868  1.0000
  S   S29       1.0  0.14782  0.03457  0.58345  1.0000
  H   H178      1.0  0.22058  0.06181  0.82400  1.0000
  Fe  Fe17      1.0  0.22194  0.08258  0.59518  1.0000
  S   S30       1.0  0.19168  0.08914  0.62143  1.0000
  S   S31       1.0  0.26629  0.10784  0.59829  1.0000
  Fe  Fe18      1.0  0.17299  0.04671  0.63408  1.0000
  S   S32       1.0  0.16023  0.03648  0.69164  1.0000
  Fe  Fe19      1.0  0.16903  0.07653  0.56841  1.0000
  S   S33       1.0  0.14254  0.09092  0.54184  1.0000
  S   S34       1.0  0.20436  0.04092  0.61035  1.0000
  S   S35       1.0  0.20040  0.07248  0.54120  1.0000
  H   H179      1.0  0.07861  0.17889  0.98092  1.0000
  C   C98       1.0  0.05895  0.15254  0.55180  1.0000
  H   H180      1.0  0.14080  0.15994  0.61085  1.0000
  Fe  Fe20      1.0  0.39574  0.22277  0.69994  1.0000
  S   S36       1.0  0.35229  0.19458  0.70417  1.0000
  S   S37       1.0  0.42327  0.21908  0.66344  1.0000
  C   C99       1.0  0.14995  0.00694  0.71432  1.0000
  C   C100      1.0  0.14443  0.00609  0.75070  1.0000
  C   C101      1.0  0.23654  0.06583  0.70190  1.0000
  H   H181      1.0  0.14582  0.02301  0.76383  1.0000
  H   H182      1.0  0.43122  0.15973  0.83099  1.0000
  C   C102      1.0  0.32866  0.17198  0.67281  1.0000
  C   C103      1.0  0.33529  0.16416  0.64128  1.0000
  C   C104      1.0  0.31594  0.14466  0.61884  1.0000
  C   C105      1.0  0.28967  0.13298  0.62717  1.0000
  C   C106      1.0  0.28302  0.14120  0.65830  1.0000
  C   C107      1.0  0.30240  0.16049  0.68093  1.0000
  H   H183      1.0  0.35533  0.17285  0.63444  1.0000
  H   H184      1.0  0.32134  0.13859  0.59476  1.0000
  H   H185      1.0  0.26296  0.13276  0.66478  1.0000
  H   H186      1.0  0.29704  0.16684  0.70478  1.0000
  C   C108      1.0  0.11420  0.16434  0.57349  1.0000
  H   H187      1.0  0.02211  0.12864  0.52158  1.0000
  H   H188      1.0  0.42434  0.22093  0.53886  1.0000
  H   H189      1.0  0.11789  0.13041  0.58805  1.0000
  C   C109      1.0  0.45069  0.18290  0.78618  1.0000
  C   C110      1.0  0.06087  0.12985  0.78684  1.0000
  C   C111      1.0  0.44343  0.23173  0.52673  1.0000
  H   H190      1.0  0.02025  0.16813  0.69812  1.0000
  H   H191      1.0  0.11121  0.19636  0.50581  1.0000
  C   C112      1.0  0.00337  0.16439  0.71273  1.0000
  H   H192      1.0  0.09871  0.22571  0.75046  1.0000
  C   C113      1.0  0.36564  0.11264  0.98144  1.0000
  C   C114      1.0  0.97923  0.16418  0.96817  1.0000
  H   H193      1.0  0.18106  0.03274  0.85475  1.0000
  H   H194      1.0  0.19829  0.08543  0.71362  1.0000
  C   C115      1.0  0.38159  0.10914  0.72302  1.0000
  C   C116      1.0  0.12165  0.17257  0.94413  1.0000
  C   C117      1.0  0.12914  0.15352  0.94953  1.0000
  H   H195      1.0  0.37643  0.18538  0.77689  1.0000
  S   S38       1.0  0.47672  0.03627  0.92205  1.0000
  H   H196      1.0  0.12105  0.13658  0.93212  1.0000
  C   C118      1.0  0.03686  0.11745  0.80901  1.0000
  C   C119      1.0  0.08711  0.03085  0.50315  1.0000
  H   H197      1.0  0.42682  0.17050  0.69492  1.0000
  H   H198      1.0  0.12712  0.04041  0.50400  1.0000
  C   C120      1.0  0.00580  0.16888  0.74996  1.0000
  H   H199      1.0  0.25525  0.08356  0.70040  1.0000
  C   C121      1.0  0.14678  0.14373  0.72569  1.0000
  H   H200      1.0  0.43657  0.18929  0.78108  1.0000
  H   H201      1.0  0.08885  0.13302  0.82725  1.0000
  H   H202      1.0  0.01223  0.12852  0.58613  1.0000
  H   H203      1.0  0.08077  0.15824  0.82995  1.0000
  H   H204      1.0  0.22293  0.06703  0.68171  1.0000
  S   S39       1.0  0.04028  0.22488  0.85727  1.0000
  C   C122      1.0  0.14007  0.16350  0.84213  1.0000
  N   N5        1.0  0.07998  0.16126  0.52504  1.0000
  H   H205      1.0  0.41491  0.23347  0.87633  1.0000
  H   H206      1.0  0.14817  0.19429  0.80648  1.0000
  C   C123      1.0  0.20150  0.07379  0.78176  1.0000
  S   S40       1.0  0.47652  0.10193  0.93535  1.0000
  C   C124      1.0  0.12480  0.21025  0.76414  1.0000
  C   C125      1.0  0.08549  0.14674  0.81074  1.0000
  H   H207      1.0  0.45449  0.17508  0.64596  1.0000
  C   C126      1.0  0.14708  0.15619  0.97728  1.0000
  H   H208      1.0  0.12454  0.19004  0.83738  1.0000
  H   H209      1.0  0.42163  0.13594  0.74366  1.0000
  C   C127      1.0  0.24790  0.10202  0.77775  1.0000
  H   H210      1.0  0.06280  0.11408  0.77347  1.0000
  S   S41       1.0  0.17739  0.99868  0.52229  1.0000
  H   H211      1.0  0.98743  0.08519  0.89298  1.0000
  H   H212      1.0  0.08732  0.18487  0.78177  1.0000
  H   H213      1.0  0.14196  0.21051  0.75267  1.0000
  H   H214      1.0  0.27994  0.10618  0.74556  1.0000
  H   H215      1.0  0.11445  0.15799  0.51675  1.0000
  C   C128      1.0  0.09426  0.19028  0.52300  1.0000
  H   H216      1.0  0.10760  0.09777  0.49357  1.0000
  H   H217      1.0  0.43803  0.04022  0.97553  1.0000
  C   C129      1.0  0.98387  0.14329  0.97327  1.0000
  H   H218      1.0  0.06321  0.20042  0.52759  1.0000
  H   H219      1.0  0.14700  0.15274  0.82534  1.0000
  H   H220      1.0  0.06500  0.16697  0.57424  1.0000
  H   H221      1.0  0.41787  0.09217  0.74064  1.0000
  H   H222      1.0  0.03940  0.10621  0.83096  1.0000
  H   H223      1.0  0.03203  0.16208  0.52017  1.0000
  H   H224      1.0  0.14485  0.15449  0.56471  1.0000
  C   C130      1.0  0.43326  0.16327  0.64114  1.0000
  H   H225      1.0  0.23606  0.05562  0.75771  1.0000
  H   H226      1.0  0.34470  0.10373  0.63783  1.0000
  H   H227      1.0  0.34422  0.14294  0.75082  1.0000
  C   C131      1.0  0.38140  0.15153  0.72929  1.0000
  H   H228      1.0  0.05734  0.14111  0.76591  1.0000
  H   H229      1.0  0.09452  0.17371  0.74239  1.0000
  H   H230      1.0  0.02181  0.16254  0.58397  1.0000
  C   C132      1.0  0.13239  0.19444  0.96672  1.0000
  C   C133      1.0  0.21678  0.09884  0.72808  1.0000
  C   C134      1.0  0.13069  0.17934  0.81887  1.0000
  C   C135      1.0  0.27220  0.11846  0.75644  1.0000
  C   C136      1.0  0.21418  0.12232  0.74144  1.0000
  C   C137      1.0  0.29365  0.13930  0.78037  1.0000
  C   C138      1.0  0.20916  0.13599  0.71006  1.0000
  N   N6        1.0  0.10930  0.16441  0.79108  1.0000
  H   H231      1.0  0.23111  0.10586  0.70700  1.0000
  H   H232      1.0  0.24460  0.11528  0.79543  1.0000
  H   H233      1.0  0.26809  0.12843  0.73438  1.0000
  H   H234      1.0  0.25339  0.09072  0.79635  1.0000
  H   H235      1.0  0.19773  0.11619  0.75925  1.0000
  H   H236      1.0  0.23210  0.13657  0.75606  1.0000
  H   H237      1.0  0.28691  0.15208  0.79260  1.0000
  H   H238      1.0  0.30011  0.13051  0.80180  1.0000
  H   H239      1.0  0.31039  0.15148  0.76410  1.0000
  H   H240      1.0  0.22535  0.14306  0.69155  1.0000
  H   H241      1.0  0.19091  0.12268  0.69507  1.0000
  H   H242      1.0  0.20747  0.15278  0.72016  1.0000
  H   H243      1.0  0.17956  0.19434  0.85262  1.0000
  H   H244      1.0  0.38683  0.12220  0.65298  1.0000
  H   H245      1.0  0.22153  0.02491  0.68991  1.0000
  H   H246      1.0  0.13870  0.17532  0.72661  1.0000
  C   C139      1.0  0.11563  0.22501  0.73942  1.0000
  C   C140      1.0  0.11581  0.14807  0.76689  1.0000
  H   H247      1.0  0.10010  0.13797  0.74607  1.0000
  H   H248      1.0  0.09014  0.13165  0.53951  1.0000
  H   H249      1.0  0.11665  0.13234  0.78208  1.0000
  C   C141      1.0  0.33808  0.09484  0.66412  1.0000
  C   C142      1.0  0.24034  0.04297  0.69094  1.0000
  H   H250      1.0  0.00055  0.14350  0.96186  1.0000
  N   N7        1.0  0.22340  0.08455  0.75631  1.0000
  C   C143      1.0  0.41058  0.09843  0.76356  1.0000
  S   S42       1.0  0.46078  0.13581  0.85675  1.0000
  H   H251      1.0  0.13086  0.22102  0.79018  1.0000
  C   C144      1.0  0.10286  0.18236  0.76934  1.0000
  H   H252      1.0  0.18257  0.06401  0.76646  1.0000
  C   C145      1.0  0.41853  0.22956  0.84865  1.0000
  C   C146      1.0  0.07857  0.20342  0.50906  1.0000
  H   H253      1.0  0.13049  0.13162  0.70658  1.0000
  H   H254      1.0  0.00266  0.11920  0.90280  1.0000
  H   H255      1.0  0.20545  0.04516  0.73573  1.0000
  H   H256      1.0  0.38589  0.09810  0.70261  1.0000
  C   C147      1.0  0.16252  0.18116  0.86771  1.0000
  S   S43       1.0  0.42225  0.23084  0.74891  1.0000
  H   H257      1.0  0.19779  0.03587  0.79521  1.0000
  H   H258      1.0  0.37999  0.16681  0.71369  1.0000
  C   C148      1.0  0.18105  0.04751  0.83653  1.0000
  H   H259      1.0  0.20112  0.08956  0.79761  1.0000
  C   C149      1.0  0.17166  0.13795  0.50906  1.0000
  H   H260      1.0  0.15784  0.17421  0.76466  1.0000
  C   C150      1.0  0.01406  0.14416  0.56825  1.0000
  C   C151      1.0  0.39082  0.13848  0.67165  1.0000
  H   H261      1.0  0.39347  0.08157  0.77392  1.0000
  H   H262      1.0  0.20716  0.11238  0.49032  1.0000
  C   C152      1.0  0.09955  0.15294  0.53711  1.0000
  H   H263      1.0  0.39255  0.17012  0.80089  1.0000
  H   H264      1.0  0.18499  0.06484  0.85285  1.0000
  H   H265      1.0  0.35993  0.12743  0.77407  1.0000
  C   C153      1.0  0.14754  0.11622  0.51221  1.0000
  H   H266      1.0  0.16437  0.15461  0.71025  1.0000
  C   C154      1.0  0.46612  0.15782  0.82172  1.0000
  C   C155      1.0  0.16227  0.99852  0.97045  1.0000
  H   H267      1.0  0.98557  0.16723  0.79710  1.0000
  C   C156      1.0  0.13035  0.15145  0.58490  1.0000
  C   C157      1.0  0.34735  0.11604  0.69397  1.0000
  H   H268      1.0  0.03296  0.13254  0.82045  1.0000
  H   H269      1.0  0.12696  0.20934  0.96275  1.0000
  H   H270      1.0  0.01987  0.10434  0.79166  1.0000
  H   H271      1.0  0.24835  0.04607  0.66392  1.0000
  H   H272      1.0  0.42939  0.14684  0.62287  1.0000
  C   C158      1.0  0.22512  0.06210  0.73946  1.0000
  H   H273      1.0  0.38445  0.15105  0.65712  1.0000
  H   H274      1.0  0.05613  0.13445  0.56454  1.0000
  H   H275      1.0  0.34187  0.13070  0.68475  1.0000
  H   H276      1.0  0.42596  0.17547  0.62807  1.0000
  H   H277      1.0  0.11015  0.21571  0.71238  1.0000
  H   H278      1.0  0.15027  0.13105  0.74430  1.0000
  C   C159      1.0  0.13609  0.01848  0.98646  1.0000
  H   H279      1.0  0.34562  0.08116  0.66943  1.0000
  H   H280      1.0  0.30242  0.06541  0.63836  1.0000
  H   H281      1.0  0.36427  0.09435  0.73627  1.0000
  H   H282      1.0  0.15682  0.19278  0.88499  1.0000
  H   H283      1.0  0.18815  0.13966  0.52483  1.0000
  N   N8        1.0  0.37578  0.12879  0.70506  1.0000
  H   H284      1.0  0.16809  0.16939  0.88526  1.0000
  H   H285      1.0  0.25400  0.04088  0.71002  1.0000
  H   H286      1.0  0.10215  0.19924  0.54985  1.0000
  H   H287      1.0  0.39792  0.12568  0.77667  1.0000
  H   H288      1.0  0.35186  0.09169  0.98181  1.0000
  C   C160      1.0  0.20174  0.05414  0.80904  1.0000
  H   H289      1.0  0.04647  0.11003  0.50710  1.0000
  H   H290      1.0  0.11806  0.01905  0.98371  1.0000
  H   H291      1.0  0.44916  0.21769  0.51625  1.0000
  H   H292      1.0  0.33535  0.10696  0.71730  1.0000
  H   H293      1.0  0.12784  0.18521  0.57147  1.0000
  C   C161      1.0  0.14092  0.16257  0.74639  1.0000
  H   H294      1.0  0.12454  0.14962  0.85872  1.0000
  C   C162      1.0  0.30859  0.07958  0.66102  1.0000
  H   H295      1.0  0.35477  0.12341  0.97656  1.0000
  H   H296      1.0  0.40160  0.16102  0.74017  1.0000
  H   H297      1.0  0.30081  0.06898  0.68588  1.0000
  H   H298      1.0  0.05011  0.14852  0.97024  1.0000
  H   H299      1.0  0.10059  0.16159  0.59480  1.0000
  H   H300      1.0  0.42810  0.14086  0.68733  1.0000
  C   C163      1.0  0.42058  0.15355  0.67676  1.0000
  H   H301      1.0  0.42601  0.10618  0.78513  1.0000
  H   H302      1.0  0.35999  0.16239  0.81066  1.0000
  C   C164      1.0  0.40378  0.11933  0.75238  1.0000
  C   C165      1.0  0.37383  0.16724  0.78900  1.0000
  H   H303      1.0  0.30023  0.09264  0.65593  1.0000
  C   C166      1.0  0.36321  0.14544  0.76092  1.0000
  H   H304      1.0  0.99338  0.10717  0.85700  1.0000
  Fe  Fe21      1.0  0.45069  0.22986  0.71191  1.0000
  H   H305      1.0  0.16157  0.03955  0.82320  1.0000
  H   H306      1.0  0.12531  0.99146  0.50844  1.0000
  C   C167      1.0  0.44626  0.23430  0.84604  1.0000
  C   C168      1.0  0.13935  0.99998  0.96648  1.0000
  H   H307      1.0  0.37872  0.11618  0.95905  1.0000
  H   H308      1.0  0.99448  0.13940  0.55732  1.0000
  H   H309      1.0  0.40482  0.20919  0.84132  1.0000
  C   C169      1.0  0.98383  0.16390  0.76854  1.0000
  H   H310      1.0  0.08361  0.01923  0.52754  1.0000
  C   C170      1.0  0.98568  0.17270  0.49251  1.0000
  H   H311      1.0  0.09082  0.05043  0.51138  1.0000
  C   C171      1.0  0.47173  0.19102  0.76421  1.0000
  H   H312      1.0  0.15278  0.14144  0.98098  1.0000
  C   C172      1.0  0.98790  0.10350  0.88527  1.0000
  S   S44       1.0  0.47534  0.21068  0.72674  1.0000
  H   H313      1.0  0.44858  0.22972  0.81819  1.0000
  C   C173      1.0  0.97924  0.15519  0.69417  1.0000
  C   C174      1.0  0.12635  0.11448  0.49144  1.0000
  S   S45       1.0  0.33202  0.46505  0.09702  1.0000
  H   H314      1.0  0.05091  0.41513  0.37311  1.0000
  H   H315      1.0  0.00371  0.47530  0.36489  1.0000
  S   S46       1.0  0.14565  0.27898  0.36274  1.0000
  Fe  Fe22      1.0  0.16488  0.45341  0.21339  1.0000
  H   H316      1.0  0.46278  0.40921  0.48439  1.0000
  S   S47       1.0  0.13648  0.46153  0.17953  1.0000
  Fe  Fe23      1.0  0.17037  0.40880  0.24973  1.0000
  S   S48       1.0  0.20701  0.43696  0.27967  1.0000
  S   S49       1.0  0.14750  0.36449  0.25539  1.0000
  Fe  Fe24      1.0  0.18614  0.45970  0.29109  1.0000
  H   H317      1.0  0.37647  0.42222  0.00952  1.0000
  Fe  Fe25      1.0  0.21848  0.45857  0.22796  1.0000
  C   C175      1.0  0.18203  0.26473  0.21505  1.0000
  S   S50       1.0  0.14927  0.43079  0.26330  1.0000
  S   S51       1.0  0.18294  0.42900  0.19686  1.0000
  C   C176      1.0  0.47419  0.48744  0.00811  1.0000
  H   H318      1.0  0.21584  0.42073  0.40456  1.0000
  H   H319      1.0  0.21110  0.29272  0.27481  1.0000
  C   C177      1.0  0.03431  0.45304  0.37541  1.0000
  H   H320      1.0  0.29223  0.45901  0.99586  1.0000
  H   H321      1.0  0.08564  0.37309  0.35121  1.0000
  H   H322      1.0  0.07553  0.47372  0.36445  1.0000
  C   C178      1.0  0.27122  0.46857  0.03467  1.0000
  C   C179      1.0  0.14565  0.30229  0.33236  1.0000
  C   C180      1.0  0.16689  0.32735  0.33356  1.0000
  C   C181      1.0  0.16788  0.34653  0.31027  1.0000
  C   C182      1.0  0.14735  0.34115  0.28579  1.0000
  C   C183      1.0  0.12612  0.31607  0.28452  1.0000
  C   C184      1.0  0.12526  0.29677  0.30750  1.0000
  H   H323      1.0  0.18289  0.33190  0.35242  1.0000
  H   H324      1.0  0.18472  0.36537  0.31088  1.0000
  H   H325      1.0  0.11018  0.31151  0.26555  1.0000
  H   H326      1.0  0.10872  0.27770  0.30618  1.0000
  H   H327      1.0  0.08473  0.40974  0.42300  1.0000
  H   H328      1.0  0.10852  0.44288  0.43173  1.0000
  C   C185      1.0  0.12369  0.41970  0.40763  1.0000
  S   S52       1.0  0.38204  0.47894  0.02334  1.0000
  C   C186      1.0  0.45712  0.28158  0.28701  1.0000
  C   C187      1.0  0.45495  0.30210  0.30294  1.0000
  N   N9        1.0  0.46929  0.28026  0.44785  1.0000
  H   H329      1.0  0.44245  0.26867  0.26772  1.0000
  H   H330      1.0  0.43849  0.30480  0.29577  1.0000
  H   H331      1.0  0.44986  0.29865  0.47290  1.0000
  C   C188      1.0  0.28672  0.45033  0.13206  1.0000
  C   C189      1.0  0.27047  0.45318  0.15655  1.0000
  H   H332      1.0  0.42517  0.24320  0.40642  1.0000
  H   H333      1.0  0.27915  0.43311  0.11526  1.0000
  H   H334      1.0  0.25067  0.43824  0.15843  1.0000
  C   C190      1.0  0.03069  0.46222  0.44004  1.0000
  H   H335      1.0  0.21341  0.32919  0.25907  1.0000
  C   C191      1.0  0.12747  0.38812  0.34394  1.0000
  C   C192      1.0  0.10369  0.31145  0.39895  1.0000
  C   C193      1.0  0.13219  0.35908  0.38786  1.0000
  C   C194      1.0  0.12482  0.25379  0.22873  1.0000
  C   C195      1.0  0.01554  0.42728  0.48660  1.0000
  C   C196      1.0  0.06301  0.43337  0.35937  1.0000
  H   H336      1.0  0.07182  0.36473  0.28776  1.0000
  H   H337      1.0  0.01968  0.46880  0.45675  1.0000
  H   H338      1.0  0.19043  0.35212  0.23538  1.0000
  H   H339      1.0  0.44554  0.29465  0.39040  1.0000
  H   H340      1.0  0.16935  0.40616  0.41706  1.0000
  H   H341      1.0  0.08920  0.33761  0.38644  1.0000
  H   H342      1.0  0.46533  0.32347  0.41728  1.0000
  H   H343      1.0  0.43057  0.36272  0.47264  1.0000
  H   H344      1.0  0.21347  0.44024  0.36902  1.0000
  C   C197      1.0  0.10596  0.33827  0.40152  1.0000
  H   H345      1.0  0.21313  0.31672  0.21479  1.0000
  H   H346      1.0  0.42880  0.27073  0.44776  1.0000
  C   C198      1.0  0.20068  0.34541  0.21738  1.0000
  H   H347      1.0  0.10443  0.34240  0.43008  1.0000
  H   H348      1.0  0.19773  0.26451  0.34880  1.0000
  H   H349      1.0  0.99945  0.47336  0.08989  1.0000
  H   H350      1.0  0.05619  0.43146  0.33093  1.0000
  H   H351      1.0  0.09954  0.37846  0.40618  1.0000
  H   H352      1.0  0.22046  0.36158  0.21420  1.0000
  C   C199      1.0  0.20226  0.32238  0.23315  1.0000
  H   H353      1.0  0.16660  0.30569  0.26088  1.0000
  C   C200      1.0  0.09242  0.37776  0.29555  1.0000
  H   H354      1.0  0.12649  0.38948  0.43637  1.0000
  C   C201      1.0  0.98747  0.45259  0.09555  1.0000
  H   H355      1.0  0.13009  0.25237  0.20098  1.0000
  C   C202      1.0  0.42446  0.37753  0.47738  1.0000
  H   H356      1.0  0.06916  0.45739  0.40605  1.0000
  C   C203      1.0  0.02121  0.43326  0.44727  1.0000
  C   C204      1.0  0.46544  0.47880  0.46517  1.0000
  H   H357      1.0  0.03632  0.42808  0.44032  1.0000
  H   H358      1.0  0.40620  0.29169  0.41689  1.0000
  H   H359      1.0  0.98096  0.42631  0.37937  1.0000
  H   H360      1.0  0.12242  0.27126  0.23125  1.0000
  H   H361      1.0  0.08559  0.29717  0.41100  1.0000
  H   H362      1.0  0.16714  0.42467  0.38116  1.0000
  S   S53       1.0  0.20068  0.48382  0.24229  1.0000
  H   H363      1.0  0.22421  0.41708  0.35984  1.0000
  H   H364      1.0  0.22792  0.27603  0.32660  1.0000
  H   H365      1.0  0.00345  0.42028  0.43148  1.0000
  C   C205      1.0  0.18299  0.40020  0.36680  1.0000
  N   N10       1.0  0.02946  0.46954  0.40172  1.0000
  C   C206      1.0  0.14593  0.25557  0.25629  1.0000
  C   C207      1.0  0.44822  0.28783  0.44775  1.0000
  H   H366      1.0  0.17709  0.27161  0.18982  1.0000
  C   C208      1.0  0.16359  0.40506  0.38816  1.0000
  H   H367      1.0  0.16303  0.29798  0.21442  1.0000
  H   H368      1.0  0.13308  0.40851  0.33810  1.0000
  H   H369      1.0  0.13833  0.38294  0.32482  1.0000
  C   C209      1.0  0.17494  0.29961  0.23899  1.0000
  H   H370      1.0  0.09427  0.35050  0.33091  1.0000
  H   H371      1.0  0.09579  0.39791  0.29558  1.0000
  H   H372      1.0  0.18169  0.38132  0.37302  1.0000
  H   H373      1.0  0.05084  0.47271  0.45151  1.0000
  H   H374      1.0  0.12030  0.31104  0.41331  1.0000
  C   C210      1.0  0.09867  0.37095  0.33257  1.0000
  N   N11       1.0  0.17342  0.27388  0.24709  1.0000
  H   H375      1.0  0.03102  0.45768  0.34753  1.0000
  C   C211      1.0  0.46769  0.26496  0.41455  1.0000
  H   H376      1.0  0.10139  0.47182  0.13689  1.0000
  H   H377      1.0  0.10448  0.37537  0.27529  1.0000
  H   H378      1.0  0.14353  0.43407  0.41693  1.0000
  C   C212      1.0  0.19096  0.27791  0.27957  1.0000
  C   C213      1.0  0.12051  0.39207  0.40879  1.0000
  C   C214      1.0  0.31260  0.46951  0.12908  1.0000
  H   H379      1.0  0.46763  0.44866  0.01515  1.0000
  H   H380      1.0  0.14683  0.48517  0.32344  1.0000
  H   H381      1.0  0.25957  0.45905  0.05803  1.0000
  H   H382      1.0  0.19039  0.34025  0.19074  1.0000
  H   H383      1.0  0.18552  0.48539  0.42254  1.0000
  H   H384      1.0  0.18215  0.47346  0.48379  1.0000
  H   H385      1.0  0.23547  0.47770  0.06684  1.0000
  H   H386      1.0  0.17942  0.40073  0.33769  1.0000
  S   S54       1.0  0.26042  0.48050  0.20970  1.0000
  H   H387      1.0  0.42614  0.32021  0.44446  1.0000
  H   H388      1.0  0.18468  0.28543  0.30251  1.0000
  H   H389      1.0  0.02026  0.43238  0.37774  1.0000
  H   H390      1.0  0.10308  0.30562  0.37055  1.0000
  H   H391      1.0  0.47180  0.27721  0.39066  1.0000
  C   C215      1.0  0.27992  0.47531  0.17859  1.0000
  H   H392      1.0  0.29242  0.44693  0.04007  1.0000
  H   H393      1.0  0.13610  0.35140  0.36291  1.0000
  H   H394      1.0  0.20349  0.27364  0.21603  1.0000
  C   C216      1.0  0.28056  0.45055  0.01958  1.0000
  H   H395      1.0  0.08327  0.43684  0.36028  1.0000
  C   C217      1.0  0.44758  0.30453  0.41650  1.0000
  H   H396      1.0  0.44325  0.24169  0.34840  1.0000
  H   H397      1.0  0.11990  0.42457  0.38032  1.0000
  H   H398      1.0  0.20837  0.47711  0.11653  1.0000
  H   H399      1.0  0.42506  0.32229  0.39653  1.0000
  C   C218      1.0  0.10507  0.42269  0.43217  1.0000
  C   C219      1.0  0.42479  0.30992  0.41890  1.0000
  H   H400      1.0  0.26370  0.43180  0.01142  1.0000
  C   C220      1.0  0.06194  0.45590  0.37790  1.0000
  H   H401      1.0  0.14683  0.35987  0.40821  1.0000
  C   C221      1.0  0.00366  0.46810  0.39235  1.0000
  C   C222      1.0  0.19345  0.25429  0.29193  1.0000
  C   C223      1.0  0.20802  0.25975  0.32822  1.0000
  H   H402      1.0  0.45066  0.47056  0.44393  1.0000
  C   C224      1.0  0.21079  0.42087  0.37576  1.0000
  H   H403      1.0  0.14155  0.26133  0.28246  1.0000
  H   H404      1.0  0.20925  0.24241  0.33681  1.0000
  N   N12       1.0  0.13534  0.38574  0.38195  1.0000
  C   C225      1.0  0.12068  0.48619  0.13058  1.0000
  C   C226      1.0  0.97939  0.44146  0.39489  1.0000
  C   C227      1.0  0.46846  0.26565  0.48134  1.0000
  C   C228      1.0  0.47399  0.31930  0.32770  1.0000
  H   H405      1.0  0.42152  0.38454  0.45106  1.0000
  H   H406      1.0  0.20455  0.24970  0.27252  1.0000
  S   S55       1.0  0.44994  0.48385  0.03861  1.0000
  H   H407      1.0  0.99855  0.44251  0.08859  1.0000
  H   H408      1.0  0.10808  0.41819  0.46011  1.0000
  S   S56       1.0  0.18731  0.47294  0.34923  1.0000
  H   H409      1.0  0.00007  0.48084  0.41057  1.0000
  C   C229      1.0  0.16790  0.48405  0.37076  1.0000
  C   C230      1.0  0.14206  0.48518  0.14682  1.0000
  H   H410      1.0  0.47816  0.25373  0.47722  1.0000
  S   S57       1.0  0.47066  0.34528  0.34605  1.0000
  C   C231      1.0  0.44212  0.23987  0.40659  1.0000
  C   C232      1.0  0.22969  0.48605  0.12048  1.0000
  H   H411      1.0  0.40391  0.41749  0.00215  1.0000
  H   H412      1.0  0.23438  0.47149  0.13212  1.0000
  H   H413      1.0  0.25873  0.47051  0.01352  1.0000
  H   H414      1.0  0.98371  0.45070  0.12451  1.0000
  Fe  Fe26      1.0  0.25609  0.45825  0.79748  1.0000
  S   S58       1.0  0.26260  0.42826  0.76981  1.0000
  H   H415      1.0  0.47026  0.34062  0.50402  1.0000
  Fe  Fe27      1.0  0.22261  0.46014  0.73364  1.0000
  S   S59       1.0  0.22687  0.42993  0.70226  1.0000
  H   H416      1.0  0.43817  0.30317  0.53711  1.0000
  Fe  Fe28      1.0  0.21990  0.40882  0.75472  1.0000
  S   S60       1.0  0.19421  0.36487  0.76056  1.0000
  Fe  Fe29      1.0  0.26905  0.45237  0.72045  1.0000
  S   S61       1.0  0.30416  0.46102  0.68675  1.0000
  S   S62       1.0  0.21322  0.43789  0.78447  1.0000
  H   H417      1.0  0.41480  0.24210  0.83003  1.0000
  S   S63       1.0  0.10826  0.28898  0.86733  1.0000
  H   H418      1.0  0.08415  0.24135  0.49580  1.0000
  Fe  Fe30      1.0  0.44006  0.26202  0.65572  1.0000
  S   S64       1.0  0.41108  0.26510  0.69040  1.0000
  H   H419      1.0  0.31601  0.41219  0.93811  1.0000
  Fe  Fe31      1.0  0.44012  0.27290  0.73602  1.0000
  S   S65       1.0  0.44698  0.30135  0.78213  1.0000
  C   C233      1.0  0.47650  0.32795  0.79830  1.0000
  C   C234      1.0  0.43754  0.45372  0.57564  1.0000
  H   H420      1.0  0.40576  0.42235  0.92325  1.0000
  H   H421      1.0  0.43915  0.42397  0.60633  1.0000
  H   H422      1.0  0.36444  0.43393  0.83186  1.0000
  H   H423      1.0  0.12233  0.43567  0.70096  1.0000
  H   H424      1.0  0.46236  0.36119  0.58232  1.0000
  S   S66       1.0  0.44232  0.27652  0.59842  1.0000
  H   H425      1.0  0.43741  0.45922  0.54736  1.0000
  C   C235      1.0  0.44071  0.42956  0.57791  1.0000
  C   C236      1.0  0.40820  0.45545  0.87703  1.0000
  C   C237      1.0  0.45188  0.46486  0.89646  1.0000
  C   C238      1.0  0.15345  0.44687  0.51727  1.0000
  C   C239      1.0  0.34678  0.48696  0.64566  1.0000
  C   C240      1.0  0.15389  0.45218  0.62768  1.0000
  C   C241      1.0  0.17162  0.45590  0.65628  1.0000
  H   H426      1.0  0.14741  0.43557  0.60993  1.0000
  H   H427      1.0  0.17899  0.44246  0.66016  1.0000
  C   C242      1.0  0.16983  0.34411  0.78998  1.0000
  C   C243      1.0  0.16058  0.31729  0.78743  1.0000
  C   C244      1.0  0.14167  0.30014  0.81040  1.0000
  C   C245      1.0  0.13168  0.30953  0.83659  1.0000
  C   C246      1.0  0.14078  0.33636  0.83888  1.0000
  C   C247      1.0  0.15944  0.35345  0.81560  1.0000
  H   H428      1.0  0.16819  0.30967  0.76759  1.0000
  H   H429      1.0  0.13495  0.27965  0.80802  1.0000
  H   H430      1.0  0.13318  0.34396  0.85877  1.0000
  H   H431      1.0  0.16576  0.37385  0.81747  1.0000
  H   H432      1.0  0.42436  0.41402  0.56220  1.0000
  H   H433      1.0  0.12988  0.36772  0.76588  1.0000
  H   H434      1.0  0.45775  0.33904  0.83786  1.0000
  S   S67       1.0  0.47007  0.27250  0.70091  1.0000
  C   C248      1.0  0.30888  0.42648  0.93918  1.0000
  C   C249      1.0  0.45816  0.31314  0.54666  1.0000
  C   C250      1.0  0.45125  0.43949  0.88355  1.0000
  H   H435      1.0  0.45992  0.27543  0.84309  1.0000
  H   H436      1.0  0.12140  0.43490  0.76419  1.0000
  C   C251      1.0  0.08284  0.42198  0.68387  1.0000
  Fe  Fe32      1.0  0.08304  0.24479  0.87274  1.0000
  H   H437      1.0  0.18121  0.36898  0.67522  1.0000
  N   N13       1.0  0.24156  0.38541  0.88864  1.0000
  C   C252      1.0  0.23757  0.37709  0.84966  1.0000
  C   C253      1.0  0.23141  0.40417  0.89534  1.0000
  C   C254      1.0  0.27039  0.39934  0.89710  1.0000
  C   C255      1.0  0.22936  0.36271  0.91286  1.0000
  C   C256      1.0  0.20006  0.34426  0.90612  1.0000
  C   C257      1.0  0.24846  0.35894  0.83857  1.0000
  C   C258      1.0  0.27941  0.41311  0.93440  1.0000
  C   C259      1.0  0.20734  0.40043  0.87262  1.0000
  C   C260      1.0  0.19748  0.41865  0.88520  1.0000
  H   H438      1.0  0.34640  0.44670  0.85461  1.0000
  C   C261      1.0  0.24099  0.34974  0.79964  1.0000
  C   C262      1.0  0.46561  0.30476  0.57785  1.0000
  H   H439      1.0  0.24658  0.39440  0.83277  1.0000
  H   H440      1.0  0.21684  0.36735  0.84100  1.0000
  H   H441      1.0  0.22730  0.40455  0.92407  1.0000
  H   H442      1.0  0.24641  0.42411  0.88979  1.0000
  H   H443      1.0  0.28033  0.41424  0.87671  1.0000
  H   H444      1.0  0.27844  0.38578  0.89562  1.0000
  H   H445      1.0  0.23967  0.35115  0.91201  1.0000
  H   H446      1.0  0.23168  0.36943  0.94119  1.0000
  H   H447      1.0  0.19499  0.33770  0.87780  1.0000
  H   H448      1.0  0.18885  0.35387  0.91438  1.0000
  H   H449      1.0  0.26987  0.36910  0.84106  1.0000
  H   H450      1.0  0.24089  0.34157  0.85515  1.0000
  C   C263      1.0  0.47606  0.34322  0.82699  1.0000
  H   H451      1.0  0.47713  0.42617  0.86373  1.0000
  H   H452      1.0  0.21235  0.40466  0.84426  1.0000
  H   H453      1.0  0.19134  0.38059  0.87374  1.0000
  H   H454      1.0  0.18069  0.41589  0.86776  1.0000
  H   H455      1.0  0.19122  0.41461  0.91312  1.0000
  H   H456      1.0  0.21279  0.43902  0.88358  1.0000
  H   H457      1.0  0.03286  0.43941  0.50402  1.0000
  C   C264      1.0  0.39945  0.44374  0.96554  1.0000
  H   H458      1.0  0.19480  0.32529  0.95734  1.0000
  H   H459      1.0  0.25033  0.33812  0.79178  1.0000
  H   H460      1.0  0.21974  0.33744  0.79610  1.0000
  H   H461      1.0  0.24735  0.36637  0.78165  1.0000
  H   H462      1.0  0.45582  0.37569  0.53010  1.0000
  S   S68       1.0  0.08587  0.48245  0.51282  1.0000
  C   C265      1.0  0.44157  0.24823  0.49670  1.0000
  H   H463      1.0  0.40458  0.43678  0.86489  1.0000
  H   H464      1.0  0.36973  0.43428  0.89848  1.0000
  H   H465      1.0  0.12130  0.41216  0.79593  1.0000
  H   H466      1.0  0.41138  0.46051  0.98354  1.0000
  H   H467      1.0  0.11118  0.41308  0.66381  1.0000
  H   H468      1.0  0.15398  0.43039  0.72850  1.0000
  C   C266      1.0  0.08897  0.32093  0.76402  1.0000
  C   C267      1.0  0.09959  0.39461  0.71560  1.0000
  C   C268      1.0  0.47698  0.37802  0.59832  1.0000
  C   C269      1.0  0.47820  0.44425  0.87436  1.0000
  C   C270      1.0  0.11313  0.36896  0.75328  1.0000
  H   H469      1.0  0.08790  0.43786  0.66478  1.0000
  C   C271      1.0  0.36614  0.45015  0.84890  1.0000
  C   C272      1.0  0.41660  0.44171  0.93660  1.0000
  C   C273      1.0  0.18043  0.46937  0.51272  1.0000
  H   H470      1.0  0.07490  0.34106  0.73020  1.0000
  C   C274      1.0  0.19105  0.32011  0.92838  1.0000
  C   C275      1.0  0.35569  0.47047  0.76021  1.0000
  H   H471      1.0  0.46248  0.26392  0.88604  1.0000
  H   H472      1.0  0.10704  0.31993  0.77002  1.0000
  H   H473      1.0  0.41696  0.46969  0.85565  1.0000
  C   C276      1.0  0.30058  0.48477  0.91516  1.0000
  H   H474      1.0  0.27142  0.39919  0.95618  1.0000
  H   H475      1.0  0.31793  0.44079  0.91803  1.0000
  S   S69       1.0  0.26752  0.47067  0.85599  1.0000
  H   H476      1.0  0.45108  0.39315  0.60750  1.0000
  C   C277      1.0  0.13318  0.42674  0.77655  1.0000
  H   H477      1.0  0.45351  0.47012  0.59089  1.0000
  H   H478      1.0  0.14278  0.40342  0.67915  1.0000
  H   H479      1.0  0.06602  0.40440  0.67220  1.0000
  H   H480      1.0  0.45895  0.47806  0.87365  1.0000
  H   H481      1.0  0.37551  0.40239  0.97211  1.0000
  H   H482      1.0  0.43385  0.26038  0.50831  1.0000
  H   H483      1.0  0.15746  0.41069  0.76088  1.0000
  H   H484      1.0  0.08941  0.39661  0.73889  1.0000
  H   H485      1.0  0.10340  0.37234  0.77599  1.0000
  C   C278      1.0  0.38114  0.45230  0.88394  1.0000
  C   C279      1.0  0.14460  0.46985  0.62185  1.0000
  H   H486      1.0  0.27338  0.42809  0.93782  1.0000
  C   C280      1.0  0.45061  0.39103  0.53630  1.0000
  H   H487      1.0  0.07748  0.42761  0.70927  1.0000
  H   H488      1.0  0.17489  0.39275  0.65390  1.0000
  H   H489      1.0  0.43302  0.44161  0.95224  1.0000
  H   H490      1.0  0.41895  0.44996  0.58697  1.0000
  H   H491      1.0  0.33932  0.46533  0.77798  1.0000
  H   H492      1.0  0.37602  0.46840  0.83429  1.0000
  H   H493      1.0  0.07424  0.30193  0.75264  1.0000
  H   H494      1.0  0.08187  0.32464  0.78932  1.0000
  H   H495      1.0  0.47018  0.44484  0.53835  1.0000
  C   C281      1.0  0.14283  0.41492  0.74748  1.0000
  H   H496      1.0  0.99551  0.46784  0.93203  1.0000
  C   C282      1.0  0.44509  0.40014  0.49984  1.0000
  H   H497      1.0  0.36694  0.46090  0.76960  1.0000
  H   H498      1.0  0.28378  0.48116  0.92987  1.0000
  C   C283      1.0  0.98992  0.47555  0.95430  1.0000
  H   H499      1.0  0.38333  0.44634  0.95421  1.0000
  C   C284      1.0  0.16601  0.37450  0.66872  1.0000
  H   H500      1.0  0.10096  0.33721  0.71288  1.0000
  H   H501      1.0  0.15053  0.43031  0.49997  1.0000
  C   C285      1.0  0.15573  0.44859  0.79764  1.0000
  C   C286      1.0  0.47065  0.40065  0.59675  1.0000
  S   S70       1.0  0.26495  0.48344  0.74965  1.0000
  S   S71       1.0  0.12247  0.46447  0.58530  1.0000
  H   H502      1.0  0.14825  0.45729  0.81722  1.0000
  H   H503      1.0  0.31504  0.43681  0.96553  1.0000
  N   N14       1.0  0.42675  0.46251  0.90901  1.0000
  H   H504      1.0  0.14707  0.35947  0.71738  1.0000
  C   C287      1.0  0.09377  0.34199  0.73719  1.0000
  H   H505      1.0  0.15068  0.35902  0.65148  1.0000
  H   H506      1.0  0.17106  0.39293  0.72003  1.0000
  H   H507      1.0  0.15108  0.44071  0.54542  1.0000
  H   H508      1.0  0.11849  0.37099  0.67753  1.0000
  C   C288      1.0  0.13378  0.38594  0.69556  1.0000
  C   C289      1.0  0.15492  0.37798  0.70331  1.0000
  H   H509      1.0  0.40583  0.36866  0.49097  1.0000
  H   H510      1.0  0.08491  0.37711  0.70065  1.0000
  C   C290      1.0  0.10601  0.41741  0.69024  1.0000
  N   N15       1.0  0.47140  0.41164  0.56032  1.0000
  H   H511      1.0  0.38221  0.46880  0.89941  1.0000
  C   C291      1.0  0.46578  0.26237  0.85733  1.0000
  H   H512      1.0  0.16835  0.46387  0.77947  1.0000
  H   H513      1.0  0.20424  0.46954  0.58131  1.0000
  H   H514      1.0  0.16992  0.30754  0.92342  1.0000
  H   H515      1.0  0.20103  0.30905  0.92078  1.0000
  H   H516      1.0  0.22798  0.47444  0.63839  1.0000
  H   H517      1.0  0.13847  0.45248  0.50962  1.0000
  H   H518      1.0  0.43856  0.43145  0.85914  1.0000
  N   N16       1.0  0.12228  0.39108  0.72793  1.0000
  S   S72       1.0  0.20140  0.48233  0.71691  1.0000
  C   C292      1.0  0.46723  0.43479  0.56413  1.0000
  H   H519      1.0  0.43208  0.38101  0.55015  1.0000
  H   H520      1.0  0.19490  0.46327  0.52082  1.0000
  C   C293      1.0  0.47630  0.33429  0.52780  1.0000
  H   H521      1.0  0.45754  0.36259  0.64793  1.0000
  H   H522      1.0  0.16734  0.44122  0.81254  1.0000
  H   H523      1.0  0.43804  0.41433  0.50326  1.0000
  C   C294      1.0  0.29808  0.48076  0.87785  1.0000
  H   H524      1.0  0.44431  0.42463  0.90430  1.0000
  H   H525      1.0  0.34788  0.46302  0.73269  1.0000
  C   C295      1.0  0.17987  0.47710  0.67973  1.0000
  H   H526      1.0  0.10325  0.24115  0.53432  1.0000
  C   C296      1.0  0.31988  0.48538  0.85904  1.0000
  H   H527      1.0  0.35130  0.47190  0.65323  1.0000
  H   H528      1.0  0.46717  0.47358  0.91822  1.0000
  H   H529      1.0  0.41509  0.48778  0.93631  1.0000
  H   H530      1.0  0.45765  0.24407  0.54809  1.0000
  H   H531      1.0  0.31817  0.48234  0.83035  1.0000
  C   C297      1.0  0.32408  0.48626  0.65776  1.0000
  H   H532      1.0  0.24969  0.48215  0.60227  1.0000
  S   S73       1.0  0.02385  0.48641  0.53223  1.0000
  H   H533      1.0  0.99949  0.43086  0.49430  1.0000
  H   H534      1.0  0.13138  0.24509  0.73700  1.0000
  C   C298      1.0  0.47680  0.36921  0.63663  1.0000
  H   H535      1.0  0.17642  0.48744  0.56080  1.0000
  H   H536      1.0  0.00977  0.40674  0.49122  1.0000
  C   C299      1.0  0.38816  0.41991  0.98860  1.0000
  H   H537      1.0  0.31827  0.53659  0.12189  1.0000
  C   C300      1.0  0.47217  0.63501  0.41760  1.0000
  C   C301      1.0  0.27376  0.52125  0.02554  1.0000
  H   H538      1.0  0.45317  0.59622  0.33411  1.0000
  S   S74       1.0  0.37268  0.52755  0.04229  1.0000
  C   C302      1.0  0.42455  0.58121  0.24608  1.0000
  Fe  Fe33      1.0  0.41404  0.54789  0.06464  1.0000
  S   S75       1.0  0.42482  0.58730  0.09046  1.0000
  S   S76       1.0  0.41080  0.51361  0.09487  1.0000
  C   C303      1.0  0.27873  0.69588  0.25330  1.0000
  C   C304      1.0  0.26776  0.67328  0.22533  1.0000
  Fe  Fe34      1.0  0.11170  0.60454  0.07444  1.0000
  S   S77       1.0  0.14268  0.60652  0.03972  1.0000
  S   S78       1.0  0.11662  0.63490  0.11647  1.0000
  Fe  Fe35      1.0  0.06971  0.55314  0.03729  1.0000
  H   H539      1.0  0.30947  0.72825  0.30793  1.0000
  S   S79       1.0  0.02581  0.52612  0.03909  1.0000
  Fe  Fe36      1.0  0.12550  0.56376  0.05006  1.0000
  S   S80       1.0  0.15408  0.54979  0.06841  1.0000
  C   C305      1.0  0.13877  0.50293  0.40755  1.0000
  S   S81       1.0  0.09588  0.56263  0.08705  1.0000
  S   S82       1.0  0.08294  0.59503  0.02845  1.0000
  S   S83       1.0  0.46498  0.60659  0.44177  1.0000
  H   H540      1.0  0.27743  0.64804  0.25721  1.0000
  C   C306      1.0  0.28080  0.65648  0.23023  1.0000
  H   H541      1.0  0.10735  0.50633  0.09460  1.0000
  H   H542      1.0  0.03479  0.60646  0.02778  1.0000
  H   H543      1.0  0.47227  0.58793  0.11932  1.0000
  C   C307      1.0  0.20036  0.68515  0.01695  1.0000
  H   H544      1.0  0.40371  0.54133  0.19477  1.0000
  H   H545      1.0  0.08996  0.54433  0.42387  1.0000
  H   H546      1.0  0.41680  0.64381  0.28751  1.0000
  C   C308      1.0  0.17022  0.52295  0.11339  1.0000
  C   C309      1.0  0.14881  0.52441  0.09803  1.0000
  C   C310      1.0  0.12399  0.50578  0.10664  1.0000
  H   H547      1.0  0.40317  0.61049  0.24053  1.0000
  H   H548      1.0  0.18950  0.53712  0.10672  1.0000
  H   H549      1.0  0.24641  0.54618  0.43945  1.0000
  C   C311      1.0  0.32930  0.54055  0.09725  1.0000
  H   H550      1.0  0.44500  0.52299  0.43834  1.0000
  H   H551      1.0  0.08688  0.67545  0.02747  1.0000
  H   H552      1.0  0.02498  0.52747  0.48677  1.0000
  H   H553      1.0  0.42620  0.55764  0.16059  1.0000
  H   H554      1.0  0.27263  0.64047  0.20997  1.0000
  H   H555      1.0  0.33571  0.52589  0.09413  1.0000
  S   S84       1.0  0.12105  0.51615  0.42891  1.0000
  C   C312      1.0  0.19086  0.70815  0.15457  1.0000
  C   C313      1.0  0.19216  0.69055  0.13034  1.0000
  C   C314      1.0  0.16967  0.66815  0.11823  1.0000
  C   C315      1.0  0.14553  0.66313  0.13014  1.0000
  C   C316      1.0  0.14424  0.68075  0.15431  1.0000
  C   C317      1.0  0.16674  0.70315  0.16647  1.0000
  H   H556      1.0  0.21072  0.69419  0.12103  1.0000
  H   H557      1.0  0.17103  0.65459  0.10013  1.0000
  H   H558      1.0  0.12568  0.67701  0.16380  1.0000
  H   H559      1.0  0.40328  0.56982  0.24909  1.0000
  H   H560      1.0  0.27120  0.68056  0.19775  1.0000
  N   N17       1.0  0.43509  0.60698  0.26543  1.0000
  H   H561      1.0  0.42354  0.60008  0.37651  1.0000
  Fe  Fe37      1.0  0.38734  0.51462  0.99616  1.0000
  C   C318      1.0  0.45064  0.60863  0.12028  1.0000
  H   H562      1.0  0.23547  0.50781  0.07298  1.0000
  H   H563      1.0  0.36561  0.57163  0.07913  1.0000
  C   C319      1.0  0.45005  0.63041  0.13468  1.0000
  H   H564      1.0  0.44912  0.59679  0.19995  1.0000
  H   H565      1.0  0.44976  0.55418  0.42521  1.0000
  H   H566      1.0  0.43409  0.63383  0.12726  1.0000
  H   H567      1.0  0.34835  0.58202  0.10834  1.0000
  H   H568      1.0  0.10071  0.55556  0.17719  1.0000
  H   H569      1.0  0.44911  0.50120  0.48832  1.0000
  H   H570      1.0  0.42472  0.57038  0.38055  1.0000
  H   H571      1.0  0.19724  0.65234  0.04693  1.0000
  C   C320      1.0  0.43214  0.58611  0.32739  1.0000
  H   H572      1.0  0.18871  0.68854  0.23257  1.0000
  H   H573      1.0  0.42651  0.56697  0.31511  1.0000
  C   C321      1.0  0.08595  0.51490  0.18041  1.0000
  H   H574      1.0  0.09164  0.49981  0.17611  1.0000
  H   H575      1.0  0.43474  0.66922  0.21508  1.0000
  H   H576      1.0  0.22677  0.66948  0.02385  1.0000
  C   C322      1.0  0.20561  0.66241  0.02193  1.0000
  H   H577      1.0  0.18834  0.67980  0.27897  1.0000
  H   H578      1.0  0.07002  0.55880  0.43352  1.0000
  H   H579      1.0  0.07237  0.55037  0.38794  1.0000
  C   C323      1.0  0.17156  0.71623  0.03449  1.0000
  H   H580      1.0  0.04797  0.49023  0.15570  1.0000
  H   H581      1.0  0.17098  0.70719  0.06073  1.0000
  C   C324      1.0  0.46430  0.62217  0.26673  1.0000
  H   H582      1.0  0.30192  0.66793  0.22670  1.0000
  H   H583      1.0  0.22859  0.72154  0.29191  1.0000
  H   H584      1.0  0.22893  0.68625  0.23119  1.0000
  H   H585      1.0  0.43246  0.62158  0.31754  1.0000
  C   C325      1.0  0.01613  0.58828  0.02649  1.0000
  H   H586      1.0  0.43871  0.52824  0.39264  1.0000
  C   C326      1.0  0.13542  0.49833  0.37029  1.0000
  H   H587      1.0  0.23447  0.68425  0.27789  1.0000
  H   H588      1.0  0.30927  0.55715  0.06679  1.0000
  H   H589      1.0  0.30366  0.49082  0.06998  1.0000
  H   H590      1.0  0.29992  0.70639  0.25022  1.0000
  H   H591      1.0  0.14758  0.53242  0.17417  1.0000
  C   C327      1.0  0.42444  0.62233  0.24568  1.0000
  C   C328      1.0  0.42260  0.66415  0.23880  1.0000
  H   H592      1.0  0.99125  0.52932  0.44711  1.0000
  H   H593      1.0  0.30551  0.54702  0.99189  1.0000
  H   H594      1.0  0.47086  0.59029  0.28703  1.0000
  C   C329      1.0  0.09035  0.65860  0.02891  1.0000
  C   C330      1.0  0.29423  0.49488  0.04668  1.0000
  H   H595      1.0  0.11104  0.52932  0.25102  1.0000
  H   H596      1.0  0.16541  0.71646  0.18511  1.0000
  H   H597      1.0  0.29269  0.73683  0.14799  1.0000
  N   N18       1.0  0.26733  0.71391  0.25148  1.0000
  N   N19       1.0  0.28785  0.51598  0.05611  1.0000
  C   C331      1.0  0.04846  0.51786  0.42086  1.0000
  H   H598      1.0  0.18476  0.70748  0.26709  1.0000
  C   C332      1.0  0.42924  0.64785  0.26426  1.0000
  C   C333      1.0  0.46999  0.64791  0.15840  1.0000
  H   H599      1.0  0.18355  0.50304  0.14996  1.0000
  H   H600      1.0  0.12663  0.67925  0.05841  1.0000
  C   C334      1.0  0.11925  0.66741  0.03338  1.0000
  H   H601      1.0  0.44968  0.65937  0.27387  1.0000
  Fe  Fe38      1.0  0.42346  0.50268  0.04359  1.0000
  C   C335      1.0  0.23851  0.69811  0.25587  1.0000
  H   H602      1.0  0.04837  0.51312  0.44947  1.0000
  C   C336      1.0  0.42501  0.60284  0.30268  1.0000
  H   H603      1.0  0.40354  0.59419  0.30116  1.0000
  H   H604      1.0  0.41583  0.58799  0.19084  1.0000
  H   H605      1.0  0.16336  0.66708  0.03920  1.0000
  C   C337      1.0  0.31300  0.54046  0.06370  1.0000
  C   C338      1.0  0.10921  0.54236  0.17700  1.0000
  H   H606      1.0  0.26991  0.53730  0.03329  1.0000
  C   C339      1.0  0.17102  0.67598  0.01328  1.0000
  Fe  Fe39      1.0  0.36991  0.49327  0.07128  1.0000
  C   C340      1.0  0.42905  0.58240  0.20542  1.0000
  H   H607      1.0  0.07765  0.51241  0.20712  1.0000
  H   H608      1.0  0.40191  0.65357  0.22977  1.0000
  C   C341      1.0  0.07166  0.54442  0.41612  1.0000
  H   H609      1.0  0.26799  0.72576  0.30668  1.0000
  H   H610      1.0  0.00172  0.59152  0.04077  1.0000
  C   C342      1.0  0.32205  0.49157  0.15120  1.0000
  H   H611      1.0  0.34196  0.50634  0.14974  1.0000
  H   H612      1.0  0.39722  0.57036  0.35801  1.0000
  H   H613      1.0  0.07146  0.51076  0.12504  1.0000
  C   C343      1.0  0.98652  0.51217  0.46214  1.0000
  H   H614      1.0  0.47124  0.63637  0.28953  1.0000
  C   C344      1.0  0.27236  0.50959  0.08955  1.0000
  C   C345      1.0  0.42380  0.55629  0.18992  1.0000
  H   H615      1.0  0.43289  0.62753  0.21888  1.0000
  H   H616      1.0  0.47134  0.63430  0.24274  1.0000
  H   H617      1.0  0.30902  0.50128  0.02603  1.0000
  H   H618      1.0  0.20883  0.69789  0.04102  1.0000
  H   H619      1.0  0.17721  0.52424  0.27439  1.0000
  N   N20       1.0  0.13091  0.55074  0.20526  1.0000
  C   C346      1.0  0.15139  0.57750  0.19625  1.0000
  C   C347      1.0  0.14192  0.53243  0.20213  1.0000
  H   H620      1.0  0.01868  0.57306  0.04040  1.0000
  C   C348      1.0  0.11997  0.54947  0.24151  1.0000
  C   C349      1.0  0.13873  0.56743  0.27176  1.0000
  C   C350      1.0  0.14204  0.59790  0.19205  1.0000
  C   C351      1.0  0.46489  0.65313  0.42881  1.0000
  C   C352      1.0  0.16602  0.53742  0.22615  1.0000
  C   C353      1.0  0.15934  0.51960  0.25812  1.0000
  C   C354      1.0  0.12585  0.56137  0.30775  1.0000
  C   C355      1.0  0.16461  0.62535  0.19438  1.0000
  H   H621      1.0  0.32594  0.54486  0.04090  1.0000
  H   H622      1.0  0.16020  0.57687  0.17060  1.0000
  H   H623      1.0  0.16766  0.58516  0.21636  1.0000
  H   H624      1.0  0.12706  0.51223  0.20639  1.0000
  S   S85       1.0  0.42914  0.53830  0.01515  1.0000
  H   H625      1.0  0.36537  0.56583  0.12619  1.0000
  C   C356      1.0  0.13390  0.68258  0.00057  1.0000
  H   H626      1.0  0.10386  0.55426  0.23954  1.0000
  C   C357      1.0  0.45159  0.53718  0.41673  1.0000
  H   H627      1.0  0.14464  0.58787  0.26623  1.0000
  H   H628      1.0  0.15640  0.56554  0.27487  1.0000
  H   H629      1.0  0.13205  0.59540  0.16542  1.0000
  H   H630      1.0  0.12829  0.59600  0.21277  1.0000
  H   H631      1.0  0.11685  0.54361  0.14982  1.0000
  C   C358      1.0  0.35357  0.56664  0.10295  1.0000
  H   H632      1.0  0.17887  0.53304  0.20973  1.0000
  H   H633      1.0  0.17820  0.55761  0.23517  1.0000
  H   H634      1.0  0.20885  0.52378  0.48237  1.0000
  H   H635      1.0  0.23629  0.50258  0.13974  1.0000
  H   H636      1.0  0.12054  0.54138  0.31543  1.0000
  H   H637      1.0  0.13946  0.57476  0.32881  1.0000
  H   H638      1.0  0.10824  0.56371  0.30657  1.0000
  H   H639      1.0  0.15713  0.63929  0.19117  1.0000
  H   H640      1.0  0.17516  0.62927  0.22074  1.0000
  H   H641      1.0  0.42633  0.68232  0.25274  1.0000
  H   H642      1.0  0.31343  0.51159  0.19258  1.0000
  H   H643      1.0  0.17811  0.62838  0.17273  1.0000
  C   C359      1.0  0.16691  0.50358  0.13783  1.0000
  H   H644      1.0  0.27895  0.56310  0.45849  1.0000
  C   C360      1.0  0.19463  0.69613  0.26048  1.0000
  H   H645      1.0  0.27602  0.68739  0.28035  1.0000
  H   H646      1.0  0.05737  0.52405  0.15534  1.0000
  H   H647      1.0  0.43763  0.55045  0.20190  1.0000
  C   C361      1.0  0.25992  0.54556  0.46038  1.0000
  C   C362      1.0  0.27115  0.72647  0.21563  1.0000
  C   C363      1.0  0.41850  0.58149  0.36268  1.0000
  H   H648      1.0  0.43247  0.56924  0.25802  1.0000
  C   C364      1.0  0.14963  0.48863  0.35204  1.0000
  H   H649      1.0  0.16232  0.66000  0.99280  1.0000
  C   C365      1.0  0.15659  0.49774  0.42639  1.0000
  C   C366      1.0  0.06443  0.50980  0.15241  1.0000
  H   H650      1.0  0.24673  0.66064  0.22800  1.0000
  H   H651      1.0  0.03100  0.51963  0.41375  1.0000
  C   C367      1.0  0.22388  0.71343  0.26416  1.0000
  H   H652      1.0  0.15948  0.50130  0.45494  1.0000
  C   C368      1.0  0.00236  0.50356  0.00751  1.0000
  H   H653      1.0  0.27828  0.49849  0.10808  1.0000
  H   H654      1.0  0.26132  0.71183  0.19374  1.0000
  H   H655      1.0  0.21376  0.73541  0.02539  1.0000
  H   H656      1.0  0.12193  0.50253  0.35536  1.0000
  H   H657      1.0  0.14555  0.52160  0.27548  1.0000
  H   H658      1.0  0.45460  0.65014  0.45314  1.0000
  H   H659      1.0  0.27663  0.52755  0.10481  1.0000
  H   H660      1.0  0.46413  0.68843  0.41640  1.0000
  S   S86       1.0  0.09860  0.55202  0.00051  1.0000
  H   H661      1.0  0.12135  0.64987  0.03646  1.0000
  N   N21       1.0  0.16307  0.69617  0.00456  1.0000
  H   H662      1.0  0.22890  0.72965  0.24601  1.0000
  H   H663      1.0  0.31137  0.73494  0.20776  1.0000
  C   C369      1.0  0.24243  0.49489  0.08468  1.0000
  H   H664      1.0  0.25441  0.50458  0.01967  1.0000
  Fe  Fe40      1.0  0.11324  0.59483  0.99382  1.0000
  H   H665      1.0  0.15766  0.72389  0.03659  1.0000
  C   C370      1.0  0.27860  0.73375  0.28185  1.0000
  H   H666      1.0  0.08203  0.64635  0.00431  1.0000
  H   H667      1.0  0.06949  0.49928  0.40347  1.0000
  H   H668      1.0  0.08038  0.64713  0.05229  1.0000
  C   C371      1.0  0.00581  0.51110  0.48442  1.0000
  C   C372      1.0  0.47035  0.67485  0.40791  1.0000
  C   C373      1.0  0.05003  0.49714  0.39708  1.0000
  H   H669      1.0  0.19729  0.64856  0.99888  1.0000
  C   C374      1.0  0.47148  0.60454  0.13008  1.0000
  H   H670      1.0  0.21053  0.69533  0.99299  1.0000
  H   H671      1.0  0.26255  0.52845  0.45526  1.0000
  S   S87       1.0  0.22000  0.73575  0.16929  1.0000
  Fe  Fe41      1.0  0.11499  0.51888  0.48871  1.0000
  C   C375      1.0  0.30581  0.49444  0.17564  1.0000
  H   H672      1.0  0.05012  0.50270  0.36869  1.0000
  H   H673      1.0  0.12689  0.69670  0.99502  1.0000
  H   H674      1.0  0.15075  0.49919  0.24866  1.0000
  H   H675      1.0  0.46928  0.66461  0.16902  1.0000
  C   C376      1.0  0.17128  0.48868  0.40798  1.0000
  H   H676      1.0  0.22393  0.50420  0.48922  1.0000
  C   C377      1.0  0.44468  0.51182  0.90125  1.0000
  H   H677      1.0  0.05550  0.65854  0.90395  1.0000
  S   S88       1.0  0.14274  0.52964  0.53627  1.0000
  H   H678      1.0  0.21635  0.73179  0.54344  1.0000
  Fe  Fe42      1.0  0.06848  0.50597  0.53485  1.0000
  C   C378      1.0  0.15303  0.49115  0.64515  1.0000
  C   C379      1.0  0.35809  0.51327  0.74546  1.0000
  H   H679      1.0  0.25374  0.71836  0.69263  1.0000
  Fe  Fe43      1.0  0.12210  0.55001  0.55950  1.0000
  S   S89       1.0  0.14959  0.58646  0.59307  1.0000
  S   S90       1.0  0.09266  0.51465  0.58675  1.0000
  S   S91       1.0  0.11326  0.61484  0.94131  1.0000
  Fe  Fe44      1.0  0.19137  0.72011  0.79183  1.0000
  S   S92       1.0  0.15411  0.71513  0.76636  1.0000
  S   S93       1.0  0.19607  0.69990  0.84179  1.0000
  Fe  Fe45      1.0  0.16996  0.71114  0.71389  1.0000
  S   S94       1.0  0.14566  0.68227  0.66858  1.0000
  S   S95       1.0  0.20581  0.71362  0.73980  1.0000
  H   H680      1.0  0.41654  0.57139  0.65284  1.0000
  S   S96       1.0  0.43052  0.55155  0.51331  1.0000
  C   C380      1.0  0.42820  0.58085  0.67773  1.0000
  H   H681      1.0  0.23821  0.49861  0.54408  1.0000
  S   S97       1.0  0.43958  0.60732  0.54508  1.0000
  H   H682      1.0  0.15468  0.66960  0.55885  1.0000
  Fe  Fe46      1.0  0.41890  0.56565  0.56250  1.0000
  S   S98       1.0  0.37852  0.55202  0.58512  1.0000
  H   H683      1.0  0.44751  0.69488  0.57984  1.0000
  S   S99       1.0  0.45248  0.56912  0.59718  1.0000
  H   H684      1.0  0.00074  0.59165  0.91576  1.0000
  C   C381      1.0  0.13681  0.63843  0.91414  1.0000
  C   C382      1.0  0.12859  0.64999  0.88760  1.0000
  C   C383      1.0  0.14636  0.66875  0.86523  1.0000
  C   C384      1.0  0.17267  0.67609  0.86890  1.0000
  C   C385      1.0  0.18088  0.66439  0.89530  1.0000
  C   C386      1.0  0.16311  0.64568  0.91778  1.0000
  H   H685      1.0  0.10832  0.64455  0.88443  1.0000
  H   H686      1.0  0.13974  0.67768  0.84528  1.0000
  H   H687      1.0  0.20118  0.66991  0.89841  1.0000
  H   H688      1.0  0.16975  0.63679  0.93774  1.0000
  C   C387      1.0  0.17048  0.49467  0.67399  1.0000
  H   H689      1.0  0.38099  0.50702  0.61476  1.0000
  C   C388      1.0  0.32471  0.49370  0.93353  1.0000
  C   C389      1.0  0.00015  0.48909  0.50402  1.0000
  H   H690      1.0  0.44044  0.60165  0.67270  1.0000
  H   H691      1.0  0.25251  0.51150  0.95521  1.0000
  C   C390      1.0  0.14734  0.61223  0.61494  1.0000
  C   C391      1.0  0.16744  0.62865  0.63924  1.0000
  C   C392      1.0  0.16698  0.64975  0.65650  1.0000
  C   C393      1.0  0.14662  0.65508  0.64917  1.0000
  C   C394      1.0  0.12649  0.63864  0.62502  1.0000
  C   C395      1.0  0.12671  0.61726  0.60822  1.0000
  H   H692      1.0  0.18353  0.62503  0.64466  1.0000
  H   H693      1.0  0.18251  0.66209  0.67506  1.0000
  H   H694      1.0  0.11063  0.64252  0.61909  1.0000
  H   H695      1.0  0.11115  0.60497  0.58958  1.0000
  H   H696      1.0  0.99033  0.54736  0.57005  1.0000
  H   H697      1.0  0.40319  0.65998  0.57032  1.0000
  S   S100      1.0  0.37767  0.51128  0.93600  1.0000
  C   C396      1.0  0.35822  0.52655  0.61349  1.0000
  H   H698      1.0  0.32651  0.49699  0.96216  1.0000
  H   H699      1.0  0.17978  0.72742  0.90061  1.0000
  H   H700      1.0  0.44106  0.57245  0.68437  1.0000
  H   H701      1.0  0.98460  0.54992  0.86604  1.0000
  H   H702      1.0  0.46468  0.54000  0.94465  1.0000
  H   H703      1.0  0.17673  0.68694  0.52451  1.0000
  H   H704      1.0  0.22101  0.57853  0.60241  1.0000
  H   H705      1.0  0.18563  0.69804  0.60546  1.0000
  C   C397      1.0  0.06738  0.54202  0.90585  1.0000
  H   H706      1.0  0.34096  0.50691  0.76198  1.0000
  C   C398      1.0  0.23753  0.48840  0.61701  1.0000
  H   H707      1.0  0.02701  0.52454  0.91519  1.0000
  H   H708      1.0  0.99443  0.52931  0.93777  1.0000
  H   H709      1.0  0.19480  0.71873  0.97022  1.0000
  N   N22       1.0  0.15820  0.62277  0.77460  1.0000
  C   C399      1.0  0.13672  0.62971  0.77618  1.0000
  C   C400      1.0  0.16074  0.61112  0.80949  1.0000
  C   C401      1.0  0.18309  0.64742  0.77014  1.0000
  C   C402      1.0  0.15462  0.60520  0.74309  1.0000
  C   C403      1.0  0.12871  0.57990  0.73955  1.0000
  C   C404      1.0  0.13209  0.64249  0.74279  1.0000
  C   C405      1.0  0.20822  0.64499  0.77162  1.0000
  C   C406      1.0  0.13580  0.59505  0.83005  1.0000
  C   C407      1.0  0.14111  0.58211  0.86205  1.0000
  C   C408      1.0  0.12646  0.56580  0.70412  1.0000
  C   C409      1.0  0.10825  0.64604  0.74660  1.0000
  C   C410      1.0  0.23225  0.67145  0.77433  1.0000
  H   H710      1.0  0.14054  0.64311  0.79939  1.0000
  H   H711      1.0  0.11798  0.61257  0.78104  1.0000
  H   H712      1.0  0.17011  0.59888  0.80526  1.0000
  H   H713      1.0  0.17377  0.62662  0.82911  1.0000
  H   H714      1.0  0.18519  0.66189  0.79087  1.0000
  H   H715      1.0  0.18284  0.65617  0.74404  1.0000
  H   H716      1.0  0.15723  0.61566  0.71765  1.0000
  H   H717      1.0  0.17002  0.59943  0.74381  1.0000
  H   H718      1.0  0.11192  0.58347  0.74009  1.0000
  H   H719      1.0  0.12760  0.56687  0.76134  1.0000
  H   H720      1.0  0.14877  0.66183  0.73933  1.0000
  H   H721      1.0  0.12886  0.63057  0.71826  1.0000
  H   H722      1.0  0.20929  0.63503  0.74700  1.0000
  H   H723      1.0  0.20933  0.63410  0.79498  1.0000
  H   H724      1.0  0.12848  0.60783  0.84068  1.0000
  H   H725      1.0  0.12030  0.57991  0.81281  1.0000
  H   H726      1.0  0.14761  0.56828  0.85310  1.0000
  H   H727      1.0  0.15611  0.59676  0.88065  1.0000
  H   H728      1.0  0.12319  0.57143  0.87686  1.0000
  H   H729      1.0  0.12665  0.57770  0.68115  1.0000
  H   H730      1.0  0.14264  0.56131  0.70202  1.0000
  H   H731      1.0  0.10800  0.54743  0.70233  1.0000
  H   H732      1.0  0.09060  0.62709  0.74815  1.0000
  H   H733      1.0  0.11043  0.65790  0.77089  1.0000
  H   H734      1.0  0.10582  0.65607  0.72298  1.0000
  H   H735      1.0  0.24988  0.66917  0.77561  1.0000
  H   H736      1.0  0.23309  0.68296  0.75070  1.0000
  H   H737      1.0  0.23222  0.68212  0.79887  1.0000
  N   N23       1.0  0.02051  0.56945  0.92755  1.0000
  H   H738      1.0  0.36094  0.49871  0.86255  1.0000
  H   H739      1.0  0.43296  0.53564  0.93210  1.0000
  H   H740      1.0  0.04811  0.54296  0.95254  1.0000
  H   H741      1.0  0.26375  0.54422  0.51753  1.0000
  C   C411      1.0  0.04465  0.54265  0.92324  1.0000
  C   C412      1.0  0.04226  0.56660  0.91187  1.0000
  H   H742      1.0  0.23006  0.68486  0.68690  1.0000
  C   C413      1.0  0.36377  0.50696  0.62389  1.0000
  C   C414      1.0  0.01898  0.59147  0.90955  1.0000
  C   C415      1.0  0.46630  0.67852  0.54548  1.0000
  H   H743      1.0  0.04298  0.62396  0.94706  1.0000
  H   H744      1.0  0.21434  0.71325  0.66004  1.0000
  C   C416      1.0  0.43258  0.48818  0.92568  1.0000
  H   H745      1.0  0.47151  0.71872  0.50595  1.0000
  C   C417      1.0  0.04190  0.61876  0.91831  1.0000
  H   H746      1.0  0.06058  0.61993  0.91158  1.0000
  H   H747      1.0  0.30145  0.50595  0.65682  1.0000
  H   H748      1.0  0.23280  0.55515  0.55574  1.0000
  H   H749      1.0  0.00392  0.59562  0.97547  1.0000
  H   H750      1.0  0.43114  0.50958  0.87851  1.0000
  C   C418      1.0  0.02604  0.57459  0.96722  1.0000
  H   H751      1.0  0.17694  0.71558  0.57458  1.0000
  H   H752      1.0  0.97901  0.54827  0.93135  1.0000
  H   H753      1.0  0.02083  0.63946  0.90361  1.0000
  H   H754      1.0  0.06495  0.54139  0.87626  1.0000
  H   H755      1.0  0.18992  0.56720  0.57929  1.0000
  C   C419      1.0  0.27035  0.53023  0.95981  1.0000
  H   H756      1.0  0.03876  0.63560  0.86791  1.0000
  C   C420      1.0  0.34663  0.49890  0.91461  1.0000
  N   N24       1.0  0.21231  0.51507  0.53789  1.0000
  C   C421      1.0  0.31870  0.50605  0.64778  1.0000
  C   C422      1.0  0.22799  0.70917  0.64530  1.0000
  H   H757      1.0  0.01794  0.58877  0.87999  1.0000
  H   H758      1.0  0.19165  0.56019  0.62560  1.0000
  N   N25       1.0  0.37298  0.54223  0.74321  1.0000
  H   H759      1.0  0.06852  0.52461  0.91431  1.0000
  C   C423      1.0  0.35565  0.55264  0.72830  1.0000
  C   C424      1.0  0.39413  0.54858  0.71722  1.0000
  C   C425      1.0  0.38541  0.55490  0.77882  1.0000
  C   C426      1.0  0.36700  0.54923  0.80993  1.0000
  C   C427      1.0  0.46460  0.49636  0.49013  1.0000
  C   C428      1.0  0.41046  0.57750  0.70828  1.0000
  C   C429      1.0  0.32670  0.53818  0.73720  1.0000
  C   C430      1.0  0.31265  0.55279  0.72411  1.0000
  C   C431      1.0  0.38210  0.55915  0.84568  1.0000
  H   H760      1.0  0.16896  0.69171  0.94889  1.0000
  Fe  Fe47      1.0  0.11249  0.49445  0.56187  1.0000
  C   C432      1.0  0.21687  0.72269  0.56918  1.0000
  H   H761      1.0  0.02600  0.55778  0.98031  1.0000
  H   H762      1.0  0.36346  0.57324  0.73659  1.0000
  H   H763      1.0  0.35539  0.55238  0.69846  1.0000
  H   H764      1.0  0.38570  0.53756  0.69151  1.0000
  H   H765      1.0  0.40828  0.54257  0.72745  1.0000
  H   H766      1.0  0.40066  0.54978  0.78710  1.0000
  H   H767      1.0  0.39576  0.57621  0.77661  1.0000
  H   H768      1.0  0.42400  0.64729  0.58584  1.0000
  H   H769      1.0  0.35391  0.52837  0.81250  1.0000
  C   C433      1.0  0.22959  0.50800  0.56069  1.0000
  C   C434      1.0  0.33557  0.52591  0.62572  1.0000
  H   H770      1.0  0.42284  0.58862  0.73182  1.0000
  H   H771      1.0  0.39825  0.58626  0.69988  1.0000
  H   H772      1.0  0.31714  0.51899  0.72340  1.0000
  H   H773      1.0  0.32393  0.53524  0.76619  1.0000
  H   H774      1.0  0.29190  0.54181  0.73024  1.0000
  H   H775      1.0  0.32101  0.57203  0.73765  1.0000
  H   H776      1.0  0.31401  0.55517  0.69472  1.0000
  H   H777      1.0  0.39524  0.58025  0.84516  1.0000
  H   H778      1.0  0.36842  0.55525  0.86738  1.0000
  H   H779      1.0  0.39356  0.54916  0.85201  1.0000
  C   C435      1.0  0.20095  0.56237  0.59964  1.0000
  H   H780      1.0  0.25766  0.69828  0.65936  1.0000
  H   H781      1.0  0.06108  0.58354  0.91956  1.0000
  H   H782      1.0  0.18069  0.52171  0.58938  1.0000
  H   H783      1.0  0.12715  0.66883  0.97714  1.0000
  C   C436      1.0  0.37315  0.49965  0.76035  1.0000
  C   C437      1.0  0.03896  0.63925  0.89708  1.0000
  H   H784      1.0  0.41339  0.64365  0.53918  1.0000
  C   C438      1.0  0.21266  0.53912  0.55255  1.0000
  H   H785      1.0  0.02926  0.49889  0.97511  1.0000
  Fe  Fe48      1.0  0.45444  0.59367  0.49958  1.0000
  H   H786      1.0  0.17676  0.51114  0.69199  1.0000
  H   H787      1.0  0.20237  0.54571  0.53319  1.0000
  C   C439      1.0  0.24341  0.70233  0.67269  1.0000
  H   H788      1.0  0.08576  0.55924  0.91445  1.0000
  H   H789      1.0  0.14598  0.50484  0.64108  1.0000
  C   C440      1.0  0.20094  0.53728  0.58942  1.0000
  H   H790      1.0  0.33100  0.54090  0.61792  1.0000
  H   H791      1.0  0.04103  0.56661  0.88216  1.0000
  C   C441      1.0  0.41952  0.65672  0.56313  1.0000
  C   C442      1.0  0.00669  0.58006  0.98768  1.0000
  H   H792      1.0  0.24858  0.56272  0.50162  1.0000
  H   H793      1.0  0.45955  0.55324  0.90387  1.0000
  H   H794      1.0  0.21707  0.69192  0.62756  1.0000
  Fe  Fe49      1.0  0.46516  0.55710  0.54724  1.0000
  H   H795      1.0  0.99558  0.52032  0.56119  1.0000
  H   H796      1.0  0.44623  0.67142  0.67749  1.0000
  C   C443      1.0  0.99498  0.54528  0.92154  1.0000
  H   H797      1.0  0.45946  0.66517  0.52177  1.0000
  C   C444      1.0  0.98278  0.52646  0.57441  1.0000
  C   C445      1.0  0.17541  0.68122  0.55286  1.0000
  H   H798      1.0  0.17223  0.50082  0.52103  1.0000
  H   H799      1.0  0.28085  0.53540  0.93455  1.0000
  C   C446      1.0  0.44303  0.68246  0.55548  1.0000
  H   H800      1.0  0.21267  0.53415  0.61058  1.0000
  H   H801      1.0  0.43731  0.69130  0.53336  1.0000
  C   C447      1.0  0.22254  0.52088  0.50069  1.0000
  C   C448      1.0  0.24962  0.54463  0.49755  1.0000
  H   H802      1.0  0.04588  0.59076  0.97267  1.0000
  C   C449      1.0  0.17344  0.70743  0.96889  1.0000
  H   H803      1.0  0.98347  0.52311  0.60348  1.0000
  C   C450      1.0  0.18808  0.70495  0.57781  1.0000
  H   H804      1.0  0.35014  0.50484  0.71850  1.0000
  C   C451      1.0  0.46550  0.67729  0.66874  1.0000
  H   H805      1.0  0.45401  0.64193  0.63824  1.0000
  H   H806      1.0  0.00212  0.53205  0.86975  1.0000
  H   H807      1.0  0.35530  0.55919  0.80572  1.0000
  H   H808      1.0  0.22562  0.71019  0.56282  1.0000
  C   C452      1.0  0.45080  0.53662  0.92183  1.0000
  H   H809      1.0  0.26505  0.54535  0.96665  1.0000
  Fe  Fe50      1.0  0.47321  0.60994  0.57815  1.0000
  H   H810      1.0  0.25788  0.72533  0.60865  1.0000
  H   H811      1.0  0.20517  0.49498  0.60802  1.0000
  H   H812      1.0  0.44586  0.49238  0.94948  1.0000
  C   C453      1.0  0.18471  0.49370  0.53432  1.0000
  H   H813      1.0  0.38967  0.50323  0.74377  1.0000
  H   H814      1.0  0.18476  0.66893  0.55699  1.0000
  C   C454      1.0  0.46986  0.66048  0.64657  1.0000
  H   H815      1.0  0.24644  0.52575  0.57214  1.0000
  H   H816      1.0  0.29267  0.51328  0.98085  1.0000
  C   C455      1.0  0.16277  0.72462  0.95230  1.0000
  S   S101      1.0  0.09681  0.54252  0.50895  1.0000
  H   H817      1.0  0.25004  0.50757  0.62996  1.0000
  H   H818      1.0  0.46968  0.66778  0.56757  1.0000
  C   C456      1.0  0.28762  0.52818  0.98958  1.0000
  H   H819      1.0  0.14283  0.71234  0.94096  1.0000
  C   C457      1.0  0.98730  0.53563  0.88211  1.0000
  C   C458      1.0  0.00917  0.49335  0.97857  1.0000
  C   C459      1.0  0.21705  0.48940  0.59186  1.0000
  H   H820      1.0  0.38035  0.50618  0.78828  1.0000
  H   H821      1.0  0.46319  0.51469  0.89084  1.0000
  C   C460      1.0  0.24617  0.73229  0.62305  1.0000
  C   C461      1.0  0.34406  0.49461  0.87735  1.0000
  H   H822      1.0  0.98763  0.56241  0.98810  1.0000
  H   H823      1.0  0.20209  0.73762  0.63084  1.0000
  Fe  Fe51      1.0  0.22002  0.81164  0.24447  1.0000
  S   S102      1.0  0.21247  0.77195  0.26046  1.0000
  S   S103      1.0  0.19544  0.83167  0.25466  1.0000
  Fe  Fe52      1.0  0.27362  0.82502  0.21530  1.0000
  S   S104      1.0  0.26964  0.78703  0.23083  1.0000
  S   S105      1.0  0.31175  0.85532  0.19353  1.0000
  Fe  Fe53      1.0  0.22878  0.76976  0.20756  1.0000
  Fe  Fe54      1.0  0.25389  0.79231  0.28182  1.0000
  S   S106      1.0  0.26406  0.78170  0.33602  1.0000
  S   S107      1.0  0.23360  0.80817  0.18956  1.0000
  S   S108      1.0  0.26071  0.83179  0.26845  1.0000
  Fe  Fe55      1.0  0.05058  0.85383  0.31722  1.0000
  S   S109      1.0  0.04262  0.81648  0.34164  1.0000
  S   S110      1.0  0.04402  0.85163  0.25674  1.0000
  Fe  Fe56      1.0  0.07328  0.88341  0.38893  1.0000
  S   S111      1.0  0.06716  0.84733  0.41707  1.0000
  S   S112      1.0  0.08387  0.92208  0.41681  1.0000
  Fe  Fe57      1.0  0.08267  0.83845  0.36698  1.0000
  S   S113      1.0  0.10823  0.81871  0.36334  1.0000
  Fe  Fe58      1.0  0.02781  0.82884  0.38858  1.0000
  H   H824      1.0  0.21969  0.83602  0.32764  1.0000
  S   S114      1.0  0.09120  0.87572  0.34104  1.0000
  S   S115      1.0  0.03323  0.86491  0.36200  1.0000
  S   S116      1.0  0.36717  0.85849  0.42482  1.0000
  H   H825      1.0  0.36695  0.80229  0.23941  1.0000
  S   S117      1.0  0.43478  0.83404  0.04369  1.0000
  Fe  Fe59      1.0  0.37934  0.86101  0.48395  1.0000
  H   H826      1.0  0.29362  0.87979  0.44352  1.0000
  H   H827      1.0  0.46316  0.79485  0.22762  1.0000
  H   H828      1.0  0.35147  0.80768  0.20068  1.0000
  Fe  Fe60      1.0  0.41594  0.85863  0.05403  1.0000
  S   S118      1.0  0.37432  0.83635  0.07190  1.0000
  H   H829      1.0  0.27992  0.85349  0.06937  1.0000
  S   S119      1.0  0.45065  0.88957  0.08408  1.0000
  H   H830      1.0  0.06594  0.79289  0.29570  1.0000
  C   C462      1.0  0.19057  0.75961  0.35517  1.0000
  H   H831      1.0  0.45647  0.80523  0.10885  1.0000
  H   H832      1.0  0.45354  0.76708  0.14059  1.0000
  C   C463      1.0  0.36498  0.81723  0.22402  1.0000
  H   H833      1.0  0.39983  0.96952  0.36365  1.0000
  H   H834      1.0  0.40222  0.85029  0.23579  1.0000
  H   H835      1.0  0.17462  0.74778  0.33549  1.0000
  H   H836      1.0  0.40216  0.80005  0.23074  1.0000
  C   C464      1.0  0.10932  0.94154  0.44827  1.0000
  H   H837      1.0  0.12312  0.80623  0.21078  1.0000
  H   H838      1.0  0.34325  0.92286  0.99924  1.0000
  H   H839      1.0  0.37940  0.79039  0.17575  1.0000
  C   C465      1.0  0.32968  0.84904  0.16147  1.0000
  C   C466      1.0  0.35476  0.86838  0.15430  1.0000
  C   C467      1.0  0.36917  0.86451  0.12795  1.0000
  C   C468      1.0  0.35832  0.84147  0.10781  1.0000
  C   C469      1.0  0.33347  0.82195  0.11549  1.0000
  C   C470      1.0  0.31931  0.82559  0.14238  1.0000
  H   H840      1.0  0.36301  0.88653  0.16911  1.0000
  H   H841      1.0  0.38841  0.87952  0.12273  1.0000
  H   H842      1.0  0.32491  0.80403  0.10010  1.0000
  H   H843      1.0  0.30002  0.81060  0.14751  1.0000
  C   C471      1.0  0.29217  0.80373  0.36119  1.0000
  C   C472      1.0  0.29635  0.79798  0.39641  1.0000
  C   C473      1.0  0.31891  0.81478  0.41670  1.0000
  C   C474      1.0  0.33767  0.83730  0.40166  1.0000
  C   C475      1.0  0.33337  0.84304  0.36650  1.0000
  C   C476      1.0  0.31068  0.82647  0.34644  1.0000
  H   H844      1.0  0.28217  0.78039  0.40800  1.0000
  H   H845      1.0  0.32204  0.81011  0.44368  1.0000
  H   H846      1.0  0.34778  0.86037  0.35462  1.0000
  H   H847      1.0  0.30777  0.83110  0.31934  1.0000
  C   C477      1.0  0.17148  0.82763  0.28566  1.0000
  C   C478      1.0  0.15641  0.80427  0.30223  1.0000
  C   C479      1.0  0.13728  0.80194  0.32593  1.0000
  C   C480      1.0  0.13249  0.82269  0.33287  1.0000
  C   C481      1.0  0.14777  0.84612  0.31658  1.0000
  C   C482      1.0  0.16698  0.84850  0.29304  1.0000
  H   H848      1.0  0.15917  0.78785  0.29636  1.0000
  H   H849      1.0  0.12579  0.78376  0.33854  1.0000
  H   H850      1.0  0.14507  0.86253  0.32267  1.0000
  H   H851      1.0  0.17860  0.86675  0.28068  1.0000
  H   H852      1.0  0.98327  0.87253  0.39313  1.0000
  C   C483      1.0  0.41510  0.91074  0.36720  1.0000
  H   H853      1.0  0.30770  0.76216  0.22304  1.0000
  C   C484      1.0  0.01313  0.84215  0.23671  1.0000
  C   C485      1.0  0.00670  0.83003  0.20269  1.0000
  H   H854      1.0  0.26145  0.90623  0.31178  1.0000
  H   H855      1.0  0.02062  0.82652  0.18913  1.0000
  C   C486      1.0  0.16027  0.93624  0.02812  1.0000
  H   H856      1.0  0.25665  0.88567  0.36995  1.0000
  H   H857      1.0  0.24910  0.86538  0.41982  1.0000
  H   H858      1.0  0.42748  0.83084  0.24284  1.0000
  H   H859      1.0  0.14268  0.92393  0.24205  1.0000
  H   H860      1.0  0.05050  0.91569  0.08086  1.0000
  C   C487      1.0  0.30113  0.86199  0.07419  1.0000
  H   H861      1.0  0.45327  0.82391  0.19145  1.0000
  H   H862      1.0  0.01751  0.79370  0.26684  1.0000
  H   H863      1.0  0.15330  0.83359  0.14503  1.0000
  H   H864      1.0  0.09344  0.87064  0.15413  1.0000
  C   C488      1.0  0.10221  0.95342  0.07361  1.0000
  H   H865      1.0  0.37919  0.76492  0.12257  1.0000
  C   C489      1.0  0.35226  0.82867  0.24780  1.0000
  H   H866      1.0  0.40041  0.89008  0.36447  1.0000
  H   H867      1.0  0.44281  0.95394  0.41316  1.0000
  N   N26       1.0  0.36145  0.90027  0.01574  1.0000
  N   N27       1.0  0.10428  0.84444  0.21286  1.0000
  C   C490      1.0  0.13604  0.93213  0.04687  1.0000
  S   S120      1.0  0.98751  0.79995  0.40717  1.0000
  H   H868      1.0  0.31602  0.78310  0.30616  1.0000
  C   C491      1.0  0.24415  0.84499  0.41516  1.0000
  H   H869      1.0  0.37620  0.81488  0.15243  1.0000
  C   C492      1.0  0.09465  0.82817  0.24564  1.0000
  C   C493      1.0  0.99003  0.83903  0.99466  1.0000
  N   N28       1.0  0.41703  0.97035  0.41631  1.0000
  C   C494      1.0  0.46891  0.89650  0.18107  1.0000
  C   C495      1.0  0.42920  0.85241  0.17520  1.0000
  H   H870      1.0  0.10807  0.94396  0.09487  1.0000
  C   C496      1.0  0.44818  0.87430  0.20130  1.0000
  H   H871      1.0  0.11349  0.92673  0.99833  1.0000
  H   H872      1.0  0.13747  0.98585  0.12749  1.0000
  H   H873      1.0  0.41811  0.91923  0.34029  1.0000
  H   H874      1.0  0.43344  0.91198  0.37807  1.0000
  H   H875      1.0  0.30833  0.88983  0.03365  1.0000
  H   H876      1.0  0.43800  0.88236  0.21699  1.0000
  H   H877      1.0  0.01385  0.87081  0.07208  1.0000
  H   H878      1.0  0.10661  0.85101  0.13674  1.0000
  H   H879      1.0  0.41029  0.82356  0.11375  1.0000
  H   H880      1.0  0.44131  0.84696  0.15895  1.0000
  C   C497      1.0  0.42430  0.94644  0.07217  1.0000
  H   H881      1.0  0.25094  0.84230  0.34178  1.0000
  H   H882      1.0  0.04251  0.87178  0.09207  1.0000
  H   H883      1.0  0.14257  0.94393  0.07195  1.0000
  H   H884      1.0  0.11471  0.91052  0.26950  1.0000
  N   N29       1.0  0.22438  0.83273  0.38458  1.0000
  H   H885      1.0  0.14177  0.98383  0.06190  1.0000
  C   C498      1.0  0.19959  0.83322  0.39253  1.0000
  H   H886      1.0  0.06249  0.81843  0.11432  1.0000
  H   H887      1.0  0.38887  0.93887  0.44670  1.0000
  H   H888      1.0  0.41726  0.95922  0.08351  1.0000
  H   H889      1.0  0.46186  0.81911  0.25531  1.0000
  C   C499      1.0  0.20192  0.85647  0.41499  1.0000
  C   C500      1.0  0.17620  0.85687  0.41488  1.0000
  C   C501      1.0  0.43749  0.80873  0.20633  1.0000
  H   H890      1.0  0.08997  0.78429  0.28221  1.0000
  H   H891      1.0  0.03384  0.86266  0.04539  1.0000
  H   H892      1.0  0.18843  0.83177  0.36719  1.0000
  H   H893      1.0  0.18670  0.81604  0.40797  1.0000
  C   C502      1.0  0.21840  0.80490  0.38114  1.0000
  H   H894      1.0  0.12525  0.91151  0.05370  1.0000
  H   H895      1.0  0.32031  0.74922  0.27092  1.0000
  C   C503      1.0  0.47188  0.80735  0.12733  1.0000
  H   H896      1.0  0.27577  0.75065  0.27572  1.0000
  H   H897      1.0  0.46805  0.78839  0.05478  1.0000
  H   H898      1.0  0.17765  0.78751  0.36078  1.0000
  H   H899      1.0  0.20744  0.85499  0.44322  1.0000
  H   H900      1.0  0.21662  0.87517  0.40511  1.0000
  H   H901      1.0  0.17788  0.87257  0.43302  1.0000
  H   H902      1.0  0.17085  0.86044  0.38760  1.0000
  H   H903      1.0  0.16052  0.83831  0.42407  1.0000
  H   H904      1.0  0.43634  0.94336  0.09301  1.0000
  H   H905      1.0  0.30745  0.85862  0.43953  1.0000
  C   C504      1.0  0.06696  0.83845  0.12143  1.0000
  H   H906      1.0  0.43530  0.78642  0.25364  1.0000
  C   C505      1.0  0.25626  0.88556  0.31292  1.0000
  H   H907      1.0  0.06695  0.95046  0.02606  1.0000
  H   H908      1.0  0.26125  0.73823  0.21400  1.0000
  H   H909      1.0  0.39993  0.93117  0.00592  1.0000
  H   H910      1.0  0.07659  0.81484  0.17575  1.0000
  H   H911      1.0  0.99868  0.78074  0.22542  1.0000
  C   C506      1.0  0.30741  0.74363  0.29362  1.0000
  H   H912      1.0  0.11123  0.82972  0.26251  1.0000
  C   C507      1.0  0.34477  0.88993  0.04780  1.0000
  C   C508      1.0  0.24293  0.87439  0.34768  1.0000
  H   H913      1.0  0.07485  0.89761  0.02245  1.0000
  H   H914      1.0  0.42100  0.80417  0.13765  1.0000
  C   C509      1.0  0.31727  0.76690  0.31926  1.0000
  Fe  Fe61      1.0  0.47015  0.86590  0.07082  1.0000
  H   H915      1.0  0.03881  0.90721  0.03519  1.0000
  C   C510      1.0  0.47036  0.78573  0.14524  1.0000
  H   H916      1.0  0.23575  0.83523  0.44047  1.0000
  H   H917      1.0  0.12064  0.88497  0.20064  1.0000
  H   H918      1.0  0.08442  0.83554  0.26283  1.0000
  H   H919      1.0  0.20064  0.79415  0.32671  1.0000
  H   H920      1.0  0.08119  0.78988  0.21888  1.0000
  H   H921      1.0  0.08954  0.96188  0.46615  1.0000
  H   H922      1.0  0.15506  0.92504  0.00245  1.0000
  H   H923      1.0  0.22563  0.87719  0.34803  1.0000
  C   C511      1.0  0.20693  0.75568  0.06761  1.0000
  H   H924      1.0  0.05646  0.76392  0.26932  1.0000
  H   H925      1.0  0.14619  0.91910  0.28901  1.0000
  H   H926      1.0  0.42048  0.95477  0.46705  1.0000
  H   H927      1.0  0.38196  0.93988  0.03511  1.0000
  C   C512      1.0  0.40389  0.80633  0.13052  1.0000
  C   C513      1.0  0.41819  0.81742  0.21945  1.0000
  C   C514      1.0  0.47599  0.96034  0.46821  1.0000
  H   H928      1.0  0.34845  0.90588  0.06710  1.0000
  H   H929      1.0  0.22584  0.77324  0.06499  1.0000
  H   H930      1.0  0.09704  0.96895  0.00681  1.0000
  C   C515      1.0  0.12847  0.84475  0.20039  1.0000
  C   C516      1.0  0.12583  0.81868  0.18749  1.0000
  C   C517      1.0  0.98202  0.82175  0.18643  1.0000
  C   C518      1.0  0.12925  0.88393  0.25646  1.0000
  H   H931      1.0  0.05607  0.79695  0.23064  1.0000
  H   H932      1.0  0.30574  0.76180  0.34359  1.0000
  C   C519      1.0  0.15032  0.82247  0.16982  1.0000
  C   C520      1.0  0.11103  0.87183  0.22285  1.0000
  C   C521      1.0  0.13343  0.91105  0.26459  1.0000
  H   H933      1.0  0.10954  0.80861  0.16769  1.0000
  H   H934      1.0  0.46002  0.90532  0.16327  1.0000
  C   C522      1.0  0.07519  0.79913  0.23949  1.0000
  C   C523      1.0  0.08310  0.83513  0.18387  1.0000
  H   H935      1.0  0.20797  0.75825  0.34794  1.0000
  H   H936      1.0  0.27421  0.88397  0.31136  1.0000
  H   H937      1.0  0.13714  0.85899  0.17901  1.0000
  H   H938      1.0  0.14357  0.85160  0.22239  1.0000
  C   C524      1.0  0.28912  0.85929  0.44274  1.0000
  C   C525      1.0  0.08296  0.94893  0.01336  1.0000
  H   H939      1.0  0.20914  0.74396  0.08916  1.0000
  N   N30       1.0  0.09530  0.93800  0.03891  1.0000
  H   H940      1.0  0.14847  0.88543  0.25267  1.0000
  H   H941      1.0  0.12097  0.87242  0.28036  1.0000
  H   H942      1.0  0.36788  0.78456  0.09894  1.0000
  C   C526      1.0  0.23459  0.84536  0.34960  1.0000
  H   H943      1.0  0.18479  0.75163  0.38211  1.0000
  C   C527      1.0  0.45012  0.80189  0.23776  1.0000
  C   C528      1.0  0.00308  0.77583  0.25244  1.0000
  H   H944      1.0  0.17257  0.95698  0.02267  1.0000
  H   H945      1.0  0.16748  0.83284  0.18833  1.0000
  H   H946      1.0  0.14860  0.80343  0.16273  1.0000
  C   C529      1.0  0.47496  0.78634  0.02826  1.0000
  H   H947      1.0  0.98531  0.87037  0.44085  1.0000
  C   C530      1.0  0.13209  0.93975  0.45207  1.0000
  H   H948      1.0  0.42069  0.86082  0.15579  1.0000
  C   C531      1.0  0.08958  0.85060  0.14898  1.0000
  H   H949      1.0  0.38000  0.97379  0.46296  1.0000
  H   H950      1.0  0.08495  0.95387  0.08378  1.0000
  C   C532      1.0  0.07170  0.78421  0.27383  1.0000
  C   C533      1.0  0.10712  0.96044  0.46865  1.0000
  N   N31       1.0  0.40782  0.82928  0.19221  1.0000
  C   C534      1.0  0.07714  0.91011  0.04622  1.0000
  H   H951      1.0  0.21388  0.79572  0.40772  1.0000
  H   H952      1.0  0.01158  0.76280  0.24933  1.0000
  H   H953      1.0  0.08552  0.90326  0.06793  1.0000
  C   C535      1.0  0.38523  0.78289  0.10753  1.0000
  H   H954      1.0  0.38950  0.91238  0.08331  1.0000
  H   H955      1.0  0.39491  0.78171  0.08324  1.0000
  C   C536      1.0  0.19586  0.78755  0.35440  1.0000
  C   C537      1.0  0.27015  0.84466  0.41152  1.0000
  H   H956      1.0  0.13416  0.92543  0.43652  1.0000
  H   H957      1.0  0.27959  0.85382  0.38659  1.0000
  H   H958      1.0  0.19254  0.76166  0.07535  1.0000
  H   H959      1.0  0.40962  0.90776  0.05233  1.0000
  C   C538      1.0  0.31500  0.87570  0.04084  1.0000
  C   C539      1.0  0.39071  0.80962  0.16378  1.0000
  H   H960      1.0  0.38734  0.85147  0.19431  1.0000
  H   H961      1.0  0.43661  0.95609  0.04941  1.0000
  C   C540      1.0  0.40159  0.92057  0.05998  1.0000
  H   H962      1.0  0.17030  0.95591  0.47740  1.0000
  H   H963      1.0  0.26715  0.82467  0.41171  1.0000
  H   H964      1.0  0.24319  0.87530  0.28944  1.0000
  C   C541      1.0  0.99230  0.81677  0.99992  1.0000
  H   H965      1.0  0.23551  0.80357  0.37220  1.0000
  H   H966      1.0  0.00013  0.85686  0.27947  1.0000
  C   C542      1.0  0.99509  0.84689  0.25374  1.0000
  C   C543      1.0  0.03411  0.87554  0.06730  1.0000
  Fe  Fe62      1.0  0.46319  0.90814  0.03035  1.0000
  C   C544      1.0  0.39664  0.97186  0.39229  1.0000
  S   S121      1.0  0.42702  0.87839  0.00116  1.0000
  H   H967      1.0  0.33253  0.81356  0.25397  1.0000
  H   H968      1.0  0.33776  0.77347  0.32757  1.0000
  H   H969      1.0  0.98348  0.89740  0.42138  1.0000
  H   H970      1.0  0.36369  0.83639  0.27335  1.0000
  C   C545      1.0  0.39151  0.83849  0.21158  1.0000
  H   H971      1.0  0.06571  0.83517  0.19456  1.0000
  C   C546      1.0  0.04968  0.90380  0.05737  1.0000
  H   H972      1.0  0.35055  0.84440  0.23404  1.0000
  H   H973      1.0  0.38706  0.92237  0.38119  1.0000
  H   H974      1.0  0.09312  0.87313  0.22730  1.0000
  Fe  Fe63      1.0  0.44873  0.85613  0.99324  1.0000
  H   H975      1.0  0.35009  0.87684  0.06285  1.0000
  C   C547      1.0  0.38615  0.92396  0.02789  1.0000
  H   H976      1.0  0.98118  0.79600  0.29853  1.0000
  C   C548      1.0  0.11899  0.93960  0.02247  1.0000
  H   H977      1.0  0.17167  0.92983  0.04542  1.0000
  H   H978      1.0  0.28841  0.76349  0.16360  1.0000
  H   H979      1.0  0.07201  0.84982  0.09670  1.0000
  H   H980      1.0  0.04947  0.83818  0.13202  1.0000
  H   H981      1.0  0.40225  0.91468  0.41835  1.0000
  H   H982      1.0  0.42713  0.79108  0.18917  1.0000
  H   H983      1.0  0.30710  0.87562  0.09751  1.0000
  C   C549      1.0  0.42605  0.95340  0.39797  1.0000
  C   C550      1.0  0.40569  0.92460  0.39244  1.0000
  H   H984      1.0  0.45823  0.86717  0.21995  1.0000
  H   H985      1.0  0.30555  0.84618  0.08061  1.0000
  H   H986      1.0  0.46861  0.76547  0.02426  1.0000
  H   H987      1.0  0.00191  0.83751  0.46679  1.0000
  H   H988      1.0  0.37787  0.87487  0.02294  1.0000
  H   H989      1.0  0.43320  0.96083  0.37114  1.0000
  H   H990      1.0  0.37727  0.95535  0.39715  1.0000
  H   H991      1.0  0.98386  0.75679  0.29914  1.0000
  C   C551      1.0  0.98186  0.82319  0.46889  1.0000
  H   H992      1.0  0.42488  0.77909  0.02995  1.0000
  H   H993      1.0  0.35269  0.97883  0.38558  1.0000
  H   H994      1.0  0.19797  0.75328  0.01129  1.0000
  H   H995      1.0  0.13133  0.95918  0.01246  1.0000
  C   C552      1.0  0.40602  0.95817  0.45134  1.0000
  H   H996      1.0  0.46549  0.93989  0.46204  1.0000
  C   C553      1.0  0.30018  0.75350  0.16714  1.0000
  C   C554      1.0  0.15257  0.95709  0.47526  1.0000
  C   C555      1.0  0.29926  0.74457  0.20557  1.0000
  H   H997      1.0  0.32042  0.76716  0.16081  1.0000
  H   H998      1.0  0.46425  0.81336  0.00130  1.0000
  C   C556      1.0  0.39685  0.97310  0.47582  1.0000
  C   C557      1.0  0.97849  0.76238  0.27326  1.0000
  C   C558      1.0  0.19855  0.74033  0.03220  1.0000
  C   C559      1.0  0.36860  0.88078  0.00134  1.0000
  H   H999      1.0  0.42464  0.75567  0.99835  1.0000
  H   H1000     1.0  0.30872  0.86114  0.01884  1.0000
  H   H1001     1.0  0.28104  0.85037  0.46851  1.0000
  C   C560      1.0  0.45964  0.79288  0.99925  1.0000
  H   H1002     1.0  0.33361  0.84398  0.00700  1.0000
  C   C561      1.0  0.43054  0.77635  0.00297  1.0000
  C   C562      1.0  0.12352  0.98202  0.07190  1.0000
  H   H1003     1.0  0.08841  0.93452  0.96169  1.0000
  S   S122      1.0  0.37700  0.89209  0.51566  1.0000
  Fe  Fe64      1.0  0.40846  0.85113  0.54689  1.0000
  S   S123      1.0  0.40797  0.88204  0.58151  1.0000
  S   S124      1.0  0.42442  0.82464  0.56610  1.0000
  Fe  Fe65      1.0  0.36617  0.86478  0.56184  1.0000
  S   S125      1.0  0.33068  0.85755  0.59371  1.0000
  Fe  Fe66      1.0  0.41887  0.90610  0.53155  1.0000
  S   S126      1.0  0.44948  0.94929  0.53200  1.0000
  S   S127      1.0  0.36624  0.83295  0.52885  1.0000
  C   C563      1.0  0.34625  0.85539  0.98544  1.0000
  S   S128      1.0  0.44190  0.83425  0.93999  1.0000
  C   C564      1.0  0.46419  0.82851  0.91601  1.0000
  C   C565      1.0  0.42732  0.75577  0.70545  1.0000
  C   C566      1.0  0.45922  0.94353  0.63268  1.0000
  S   S129      1.0  0.26456  0.77354  0.70900  1.0000
  Fe  Fe67      1.0  0.17582  0.75829  0.75905  1.0000
  S   S130      1.0  0.15470  0.78242  0.76522  1.0000
  S   S131      1.0  0.21274  0.76350  0.78680  1.0000
  Fe  Fe68      1.0  0.08488  0.89390  0.89931  1.0000
  S   S132      1.0  0.11986  0.89894  0.93191  1.0000
  S   S133      1.0  0.04464  0.87935  0.92250  1.0000
  Fe  Fe69      1.0  0.11809  0.92215  0.83504  1.0000
  S   S134      1.0  0.15457  0.92895  0.86480  1.0000
  S   S135      1.0  0.12066  0.93085  0.77520  1.0000
  Fe  Fe70      1.0  0.13227  0.88761  0.88108  1.0000
  S   S136      1.0  0.15268  0.86259  0.88075  1.0000
  Fe  Fe71      1.0  0.13891  0.93969  0.91232  1.0000
  S   S137      1.0  0.16653  0.97396  0.94875  1.0000
  S   S138      1.0  0.09604  0.88014  0.84965  1.0000
  S   S139      1.0  0.10365  0.93540  0.88154  1.0000
  C   C567      1.0  0.15415  0.80404  0.79858  1.0000
  C   C568      1.0  0.17258  0.81440  0.82697  1.0000
  C   C569      1.0  0.17175  0.83212  0.85181  1.0000
  C   C570      1.0  0.15256  0.83984  0.84877  1.0000
  C   C571      1.0  0.13389  0.82914  0.82079  1.0000
  C   C572      1.0  0.13481  0.81157  0.79580  1.0000
  H   H1004     1.0  0.18761  0.80893  0.82964  1.0000
  H   H1005     1.0  0.18621  0.84003  0.87346  1.0000
  H   H1006     1.0  0.11853  0.83417  0.81873  1.0000
  H   H1007     1.0  0.12022  0.80351  0.77433  1.0000
  C   C573      1.0  0.13283  0.96071  0.75293  1.0000
  C   C574      1.0  0.13813  0.96147  0.71643  1.0000
  H   H1008     1.0  0.34022  0.82057  0.95739  1.0000
  H   H1009     1.0  0.13507  0.94406  0.70267  1.0000
  H   H1010     1.0  0.40599  0.82890  0.84262  1.0000
  H   H1011     1.0  0.46506  0.79479  0.84176  1.0000
  C   C575      1.0  0.40186  0.85228  0.66997  1.0000
  H   H1012     1.0  0.41677  0.83941  0.77954  1.0000
  H   H1013     1.0  0.28814  0.75803  0.58125  1.0000
  H   H1014     1.0  0.32942  0.89210  0.97804  1.0000
  H   H1015     1.0  0.22342  0.91815  0.81283  1.0000
  H   H1016     1.0  0.45989  0.96047  0.64664  1.0000
  S   S140      1.0  0.18844  0.75373  0.70413  1.0000
  H   H1017     1.0  0.44579  0.79346  0.59423  1.0000
  H   H1018     1.0  0.46393  0.83563  0.72465  1.0000
  C   C576      1.0  0.13633  0.98329  0.77007  1.0000
  H   H1019     1.0  0.43787  0.75240  0.68383  1.0000
  C   C577      1.0  0.31232  0.83362  0.62517  1.0000
  C   C578      1.0  0.31984  0.81598  0.63835  1.0000
  C   C579      1.0  0.30506  0.79795  0.66400  1.0000
  C   C580      1.0  0.28234  0.79694  0.67657  1.0000
  C   C581      1.0  0.27454  0.81423  0.66286  1.0000
  C   C582      1.0  0.28950  0.83248  0.63754  1.0000
  H   H1020     1.0  0.33723  0.81647  0.62912  1.0000
  H   H1021     1.0  0.31132  0.78469  0.67425  1.0000
  H   H1022     1.0  0.25722  0.81385  0.67220  1.0000
  H   H1023     1.0  0.28346  0.84600  0.62767  1.0000
  C   C583      1.0  0.44736  0.83035  0.60174  1.0000
  C   C584      1.0  0.27530  0.76029  0.56084  1.0000
  H   H1024     1.0  0.39817  0.77634  0.73232  1.0000
  H   H1025     1.0  0.14182  0.83271  0.65551  1.0000
  H   H1026     1.0  0.46223  0.81288  0.78434  1.0000
  H   H1027     1.0  0.25991  0.74786  0.64180  1.0000
  H   H1028     1.0  0.40635  0.74234  0.70096  1.0000
  Fe  Fe72      1.0  0.22402  0.75654  0.73213  1.0000
  N   N32       1.0  0.23359  0.74288  0.59724  1.0000
  C   C585      1.0  0.46028  0.96825  0.97060  1.0000
  H   H1029     1.0  0.38795  0.78114  0.79295  1.0000
  C   C586      1.0  0.47223  0.80732  0.86523  1.0000
  C   C587      1.0  0.41628  0.85039  0.70358  1.0000
  H   H1030     1.0  0.22536  0.78860  0.59096  1.0000
  C   C588      1.0  0.43256  0.78372  0.70499  1.0000
  C   C589      1.0  0.02630  0.85587  0.95435  1.0000
  H   H1031     1.0  0.19910  0.75387  0.93166  1.0000
  C   C590      1.0  0.21881  0.75322  0.61789  1.0000
  H   H1032     1.0  0.24679  0.77305  0.55822  1.0000
  H   H1033     1.0  0.41990  0.80060  0.81176  1.0000
  C   C591      1.0  0.15042  0.97614  0.49534  1.0000
  C   C592      1.0  0.34815  0.90846  0.98746  1.0000
  H   H1034     1.0  0.20535  0.91773  0.85097  1.0000
  H   H1035     1.0  0.18593  0.95716  0.68220  1.0000
  H   H1036     1.0  0.01441  0.79769  0.98719  1.0000
  C   C593      1.0  0.39154  0.80950  0.83203  1.0000
  C   C594      1.0  0.35658  0.83876  0.96840  1.0000
  C   C595      1.0  0.02934  0.83418  0.96090  1.0000
  H   H1037     1.0  0.39556  0.80864  0.69679  1.0000
  H   H1038     1.0  0.45611  0.83690  0.80560  1.0000
  H   H1039     1.0  0.40407  0.87198  0.66830  1.0000
  H   H1040     1.0  0.17455  0.84023  0.66911  1.0000
  H   H1041     1.0  0.45307  0.86784  0.61644  1.0000
  C   C596      1.0  0.29270  0.78292  0.53796  1.0000
  H   H1042     1.0  0.20034  0.75973  0.56948  1.0000
  C   C597      1.0  0.15423  0.83127  0.67739  1.0000
  H   H1043     1.0  0.43539  0.80491  0.87577  1.0000
  C   C598      1.0  0.25500  0.76547  0.57920  1.0000
  H   H1044     1.0  0.16429  0.84132  0.73268  1.0000
  H   H1045     1.0  0.42549  0.78349  0.76079  1.0000
  C   C599      1.0  0.05974  0.94657  0.95400  1.0000
  C   C600      1.0  0.47197  0.96979  0.50038  1.0000
  C   C601      1.0  0.40789  0.81918  0.76892  1.0000
  H   H1046     1.0  0.38696  0.79572  0.85411  1.0000
  H   H1047     1.0  0.36888  0.90681  0.94030  1.0000
  C   C602      1.0  0.19866  0.95921  0.70596  1.0000
  C   C603      1.0  0.45950  0.98717  0.94828  1.0000
  H   H1048     1.0  0.35872  0.93489  0.90230  1.0000
  H   H1049     1.0  0.33468  0.85894  0.96450  1.0000
  H   H1050     1.0  0.42010  0.78207  0.98278  1.0000
  H   H1051     1.0  0.38178  0.97088  0.52850  1.0000
  C   C604      1.0  0.20469  0.90734  0.82581  1.0000
  H   H1052     1.0  0.98848  0.82124  0.89425  1.0000
  H   H1053     1.0  0.45375  0.79631  0.70695  1.0000
  H   H1054     1.0  0.07377  0.96690  0.94860  1.0000
  H   H1055     1.0  0.38092  0.83836  0.67070  1.0000
  C   C605      1.0  0.45542  0.81296  0.88468  1.0000
  H   H1056     1.0  0.46542  0.88491  0.55232  1.0000
  N   N33       1.0  0.16049  0.88827  0.73848  1.0000
  C   C606      1.0  0.16167  0.87341  0.70634  1.0000
  C   C607      1.0  0.16680  0.91504  0.72725  1.0000
  C   C608      1.0  0.17952  0.88892  0.76698  1.0000
  C   C609      1.0  0.13390  0.87569  0.75332  1.0000
  C   C610      1.0  0.11128  0.87082  0.72652  1.0000
  C   C611      1.0  0.15232  0.84427  0.71167  1.0000
  C   C612      1.0  0.18250  0.90516  0.80116  1.0000
  C   C613      1.0  0.19506  0.93289  0.71714  1.0000
  H   H1057     1.0  0.43406  0.75150  0.73132  1.0000
  C   C614      1.0  0.08545  0.85762  0.74467  1.0000
  H   H1058     1.0  0.20178  0.88793  0.83278  1.0000
  H   H1059     1.0  0.18187  0.88181  0.69762  1.0000
  H   H1060     1.0  0.15051  0.87533  0.68306  1.0000
  H   H1061     1.0  0.15436  0.91404  0.70364  1.0000
  H   H1062     1.0  0.16206  0.92516  0.74845  1.0000
  H   H1063     1.0  0.19890  0.89557  0.75592  1.0000
  H   H1064     1.0  0.17369  0.86917  0.77644  1.0000
  H   H1065     1.0  0.12966  0.85711  0.76546  1.0000
  H   H1066     1.0  0.13297  0.88768  0.77565  1.0000
  H   H1067     1.0  0.11014  0.85825  0.70370  1.0000
  H   H1068     1.0  0.11347  0.88923  0.71601  1.0000
  H   H1069     1.0  0.13188  0.83400  0.71923  1.0000
  H   H1070     1.0  0.16458  0.89573  0.81622  1.0000
  C   C615      1.0  0.07256  0.93427  0.97705  1.0000
  H   H1071     1.0  0.20879  0.93623  0.74009  1.0000
  H   H1072     1.0  0.20036  0.92446  0.69447  1.0000
  C   C616      1.0  0.47364  0.81567  0.63657  1.0000
  H   H1073     1.0  0.04291  0.94582  0.96740  1.0000
  C   C617      1.0  0.00674  0.85827  0.97176  1.0000
  H   H1074     1.0  0.08207  0.83890  0.75564  1.0000
  H   H1075     1.0  0.08512  0.87014  0.76666  1.0000
  H   H1076     1.0  0.06952  0.85404  0.72495  1.0000
  H   H1077     1.0  0.32956  0.90825  0.91735  1.0000
  C   C618      1.0  0.45466  0.81142  0.60953  1.0000
  H   H1078     1.0  0.42507  0.78631  0.67863  1.0000
  C   C619      1.0  0.45890  0.85342  0.62181  1.0000
  H   H1079     1.0  0.05281  0.93582  0.92801  1.0000
  H   H1080     1.0  0.00439  0.87507  0.96718  1.0000
  H   H1081     1.0  0.30276  0.80095  0.55457  1.0000
  C   C620      1.0  0.12738  0.97737  0.49241  1.0000
  H   H1082     1.0  0.46941  0.92130  0.57534  1.0000
  H   H1083     1.0  0.26583  0.78171  0.59883  1.0000
  H   H1084     1.0  0.18639  0.92497  0.79510  1.0000
  H   H1085     1.0  0.37358  0.80988  0.82310  1.0000
  H   H1086     1.0  0.05798  0.91402  0.98099  1.0000
  H   H1087     1.0  0.34164  0.94005  0.93767  1.0000
  C   C621      1.0  0.41932  0.78964  0.73608  1.0000
  H   H1088     1.0  0.36934  0.84901  0.94626  1.0000
  C   C622      1.0  0.14699  0.98450  0.69734  1.0000
  C   C623      1.0  0.40244  0.80114  0.80123  1.0000
  H   H1089     1.0  0.14763  0.81056  0.68221  1.0000
  C   C624      1.0  0.45229  0.83589  0.74712  1.0000
  H   H1090     1.0  0.40728  0.85403  0.72687  1.0000
  C   C625      1.0  0.46471  0.83258  0.78239  1.0000
  H   H1091     1.0  0.43657  0.86606  0.70293  1.0000
  H   H1092     1.0  0.42803  0.82413  0.68297  1.0000
  H   H1093     1.0  0.38354  0.88952  0.98106  1.0000
  H   H1094     1.0  0.45495  0.92819  0.65239  1.0000
  H   H1095     1.0  0.04414  0.83190  0.94762  1.0000
  C   C626      1.0  0.41556  0.82379  0.70478  1.0000
  H   H1096     1.0  0.44524  0.94844  0.96795  1.0000
  H   H1097     1.0  0.21901  0.97178  0.69902  1.0000
  H   H1098     1.0  0.40960  0.84820  0.64558  1.0000
  N   N34       1.0  0.42407  0.81706  0.73984  1.0000
  H   H1099     1.0  0.38837  0.81477  0.75782  1.0000
  H   H1100     1.0  0.17048  0.75173  0.90959  1.0000
  H   H1101     1.0  0.19404  0.96869  0.72814  1.0000
  H   H1102     1.0  0.23110  0.76582  0.64065  1.0000
  C   C627      1.0  0.47816  0.85786  0.64848  1.0000
  C   C628      1.0  0.38794  0.95963  0.51128  1.0000
  H   H1103     1.0  0.46392  0.78907  0.97196  1.0000
  H   H1104     1.0  0.30758  0.77913  0.52611  1.0000
  H   H1105     1.0  0.38121  0.93870  0.95991  1.0000
  C   C629      1.0  0.34725  0.92618  0.92614  1.0000
  H   H1106     1.0  0.28128  0.78571  0.51590  1.0000
  C   C630      1.0  0.01234  0.81473  0.98331  1.0000
  H   H1107     1.0  0.44337  0.93651  0.61177  1.0000
  H   H1108     1.0  0.12399  0.98655  0.94847  1.0000
  C   C631      1.0  0.36344  0.92027  0.95346  1.0000
  S   S141      1.0  0.42172  0.87597  0.49832  1.0000
  H   H1109     1.0  0.45530  0.85592  0.74835  1.0000
  H   H1110     1.0  0.26582  0.74267  0.54346  1.0000
  C   C632      1.0  0.17910  0.74034  0.92173  1.0000
  C   C633      1.0  0.18892  0.77332  0.61529  1.0000
  H   H1111     1.0  0.19773  0.78492  0.64026  1.0000
  H   H1112     1.0  0.44377  0.98159  0.92860  1.0000
  H   H1113     1.0  0.40390  0.95810  0.52571  1.0000
  H   H1114     1.0  0.13195  0.98295  0.79793  1.0000
  H   H1115     1.0  0.15090  0.98471  0.66930  1.0000
  C   C634      1.0  0.20899  0.76921  0.59577  1.0000
  H   H1116     1.0  0.18177  0.78399  0.59808  1.0000
  H   H1117     1.0  0.46824  0.85712  0.50667  1.0000
  H   H1118     1.0  0.37128  0.94006  0.50670  1.0000
  H   H1119     1.0  0.17219  0.75456  0.62175  1.0000
  H   H1120     1.0  0.16212  0.73803  0.97257  1.0000
  H   H1121     1.0  0.36763  0.83379  0.98861  1.0000
  Fe  Fe73      1.0  0.58757  0.11661  0.46418  1.0000
  S   S142      1.0  0.59690  0.08718  0.44082  1.0000
  Fe  Fe74      1.0  0.56245  0.12120  0.39278  1.0000
  S   S143      1.0  0.56991  0.09140  0.36558  1.0000
  S   S144      1.0  0.54969  0.14770  0.36424  1.0000
  Fe  Fe75      1.0  0.55623  0.06881  0.41675  1.0000
  S   S145      1.0  0.52864  0.02475  0.41804  1.0000
  Fe  Fe76      1.0  0.60978  0.11272  0.39252  1.0000
  S   S146      1.0  0.65004  0.12505  0.37008  1.0000
  S   S147      1.0  0.54642  0.09758  0.44171  1.0000
  S   S148      1.0  0.60277  0.14315  0.41812  1.0000
  S   S149      1.0  0.51863  0.14467  0.01919  1.0000
  Fe  Fe77      1.0  0.88400  0.07785  0.05709  1.0000
  S   S150      1.0  0.84701  0.07110  0.02806  1.0000
  S   S151      1.0  0.92417  0.09365  0.03301  1.0000
  Fe  Fe78      1.0  0.85463  0.04946  0.12400  1.0000
  S   S152      1.0  0.81637  0.04132  0.09880  1.0000
  S   S153      1.0  0.85945  0.04045  0.18237  1.0000
  Fe  Fe79      1.0  0.82996  0.03064  0.04876  1.0000
  C   C635      1.0  0.86346  0.20488  0.08036  1.0000
  Fe  Fe80      1.0  0.83671  0.08242  0.08087  1.0000
  S   S154      1.0  0.81699  0.10803  0.08360  1.0000
  S   S155      1.0  0.86722  0.03667  0.07537  1.0000
  S   S156      1.0  0.87466  0.09132  0.10842  1.0000
  Fe  Fe81      1.0  0.75208  0.22078  0.22336  1.0000
  S   S157      1.0  0.78671  0.22439  0.25485  1.0000
  S   S158      1.0  0.71042  0.19949  0.24236  1.0000
  Fe  Fe82      1.0  0.79947  0.21543  0.20273  1.0000
  S   S159      1.0  0.81798  0.18881  0.20027  1.0000
  S   S160      1.0  0.76370  0.20959  0.17201  1.0000
  C   C636      1.0  0.84153  0.01066  0.20423  1.0000
  C   C637      1.0  0.84071  0.01072  0.24177  1.0000
  H   H1122     1.0  0.92325  0.14159  0.01389  1.0000
  H   H1123     1.0  0.85003  0.02885  0.25662  1.0000
  C   C638      1.0  0.86025  0.01247  0.37141  1.0000
  C   C639      1.0  0.81664  0.12916  0.11776  1.0000
  C   C640      1.0  0.79819  0.13786  0.11489  1.0000
  C   C641      1.0  0.79795  0.15564  0.14013  1.0000
  C   C642      1.0  0.81645  0.16535  0.16845  1.0000
  C   C643      1.0  0.83461  0.15633  0.17170  1.0000
  C   C644      1.0  0.83472  0.13837  0.14664  1.0000
  H   H1124     1.0  0.78400  0.13081  0.09285  1.0000
  H   H1125     1.0  0.78349  0.16187  0.13755  1.0000
  H   H1126     1.0  0.84888  0.16344  0.19365  1.0000
  H   H1127     1.0  0.84901  0.13192  0.14942  1.0000
  C   C645      1.0  0.49981  0.11783  0.33474  1.0000
  H   H1128     1.0  0.86500  0.15908  0.06850  1.0000
  H   H1129     1.0  0.87575  0.00721  0.36773  1.0000
  H   H1130     1.0  0.52433  0.23638  0.31043  1.0000
  C   C646      1.0  0.95034  0.07751  0.16036  1.0000
  C   C647      1.0  0.50051  0.15605  0.04346  1.0000
  C   C648      1.0  0.50456  0.15931  0.08082  1.0000
  H   H1131     1.0  0.52513  0.16817  0.47211  1.0000
  H   H1132     1.0  0.51850  0.15486  0.09394  1.0000
  C   C649      1.0  0.72586  0.23721  0.35992  1.0000
  C   C650      1.0  0.87241  0.17290  0.04640  1.0000
  H   H1133     1.0  0.68398  0.20055  0.39502  1.0000
  H   H1134     1.0  0.95491  0.08449  0.42119  1.0000
  H   H1135     1.0  0.53975  0.18783  0.39579  1.0000
  C   C651      1.0  0.92142  0.06079  0.47787  1.0000
  H   H1136     1.0  0.66172  0.21259  0.38442  1.0000
  H   H1137     1.0  0.76836  0.17496  0.07645  1.0000
  H   H1138     1.0  0.86752  0.07707  0.43996  1.0000
  C   C652      1.0  0.50750  0.00417  0.45091  1.0000
  C   C653      1.0  0.69441  0.17972  0.27908  1.0000
  C   C654      1.0  0.66752  0.16972  0.28101  1.0000
  C   C655      1.0  0.65376  0.15348  0.30892  1.0000
  C   C656      1.0  0.66667  0.14678  0.33537  1.0000
  C   C657      1.0  0.69364  0.15689  0.33353  1.0000
  C   C658      1.0  0.70745  0.17335  0.30578  1.0000
  H   H1139     1.0  0.65714  0.17446  0.26062  1.0000
  H   H1140     1.0  0.63307  0.14588  0.30973  1.0000
  H   H1141     1.0  0.70389  0.15186  0.35374  1.0000
  H   H1142     1.0  0.72813  0.18100  0.30495  1.0000
  C   C659      1.0  0.52239  0.14158  0.33612  1.0000
  C   C660      1.0  0.52297  0.16196  0.31628  1.0000
  H   H1143     1.0  0.91431  0.03020  0.09451  1.0000
  H   H1144     1.0  0.54044  0.18032  0.31686  1.0000
  C   C661      1.0  0.96577  0.10441  0.21507  1.0000
  H   H1145     1.0  0.93517  0.11175  0.40793  1.0000
  H   H1146     1.0  0.88476  0.21682  0.08432  1.0000
  H   H1147     1.0  0.93074  0.11998  0.23544  1.0000
  H   H1148     1.0  0.89974  0.08086  0.48271  1.0000
  H   H1149     1.0  0.57422  0.12427  0.01686  1.0000
  H   H1150     1.0  0.48709  0.11277  0.16703  1.0000
  H   H1151     1.0  0.92983  0.11941  0.12600  1.0000
  H   H1152     1.0  0.97370  0.11749  0.37527  1.0000
  C   C662      1.0  0.96371  0.12433  0.15897  1.0000
  H   H1153     1.0  0.97081  0.10611  0.99708  1.0000
  H   H1154     1.0  0.49905  0.10201  0.34994  1.0000
  C   C663      1.0  0.50116  0.15886  0.29567  1.0000
  C   C664      1.0  0.89197  0.10652  0.21571  1.0000
  H   H1155     1.0  0.90371  0.04296  0.48464  1.0000
  H   H1156     1.0  0.91054  0.08882  0.16454  1.0000
  H   H1157     1.0  0.50160  0.03818  0.05266  1.0000
  H   H1158     1.0  0.86088  0.11365  0.45660  1.0000
  H   H1159     1.0  0.67322  0.20050  0.34918  1.0000
  H   H1160     1.0  0.73115  0.22856  0.38281  1.0000
  C   C665      1.0  0.87522  0.12524  0.43672  1.0000
  H   H1161     1.0  0.92157  0.07264  0.11666  1.0000
  H   H1162     1.0  0.96817  0.08418  0.14501  1.0000
  C   C666      1.0  0.67877  0.21134  0.37511  1.0000
  C   C667      1.0  0.53431  0.16967  0.44636  1.0000
  H   H1163     1.0  0.92764  0.13288  0.19307  1.0000
  H   H1164     1.0  0.91458  0.07610  0.20516  1.0000
  C   C668      1.0  0.92335  0.09379  0.18889  1.0000
  H   H1165     1.0  0.89362  0.18513  0.05057  1.0000
  H   H1166     1.0  0.50189  0.17477  0.28072  1.0000
  H   H1167     1.0  0.89917  0.03906  0.41700  1.0000
  H   H1168     1.0  0.48705  0.04125  0.42364  1.0000
  H   H1169     1.0  0.51438  0.03401  0.48961  1.0000
  H   H1170     1.0  0.81554  0.18431  0.08033  1.0000
  H   H1171     1.0  0.49642  0.21881  0.40013  1.0000
  C   C669      1.0  0.49120  0.16884  0.10131  1.0000
  H   H1172     1.0  0.88041  0.10200  0.19009  1.0000
  H   H1173     1.0  0.88376  0.08912  0.23238  1.0000
  C   C670      1.0  0.85893  0.18946  0.04466  1.0000
  N   N35       1.0  0.72220  0.12124  0.23186  1.0000
  C   C671      1.0  0.69804  0.09795  0.24311  1.0000
  C   C672      1.0  0.73524  0.11294  0.20475  1.0000
  C   C673      1.0  0.73956  0.13346  0.26474  1.0000
  C   C674      1.0  0.71595  0.14087  0.21510  1.0000
  C   C675      1.0  0.69623  0.13107  0.18268  1.0000
  C   C676      1.0  0.68024  0.10368  0.26694  1.0000
  C   C677      1.0  0.76766  0.15413  0.25796  1.0000
  C   C678      1.0  0.74452  0.09381  0.21805  1.0000
  C   C679      1.0  0.76120  0.09024  0.19059  1.0000
  C   C680      1.0  0.68846  0.15130  0.17147  1.0000
  C   C681      1.0  0.65681  0.07886  0.27767  1.0000
  C   C682      1.0  0.78257  0.16676  0.29302  1.0000
  H   H1174     1.0  0.70320  0.08487  0.25847  1.0000
  H   H1175     1.0  0.68637  0.08614  0.21943  1.0000
  H   H1176     1.0  0.72188  0.10320  0.18129  1.0000
  H   H1177     1.0  0.75189  0.13005  0.19369  1.0000
  H   H1178     1.0  0.74055  0.11862  0.28189  1.0000
  H   H1179     1.0  0.73128  0.14287  0.28184  1.0000
  H   H1180     1.0  0.70890  0.14953  0.23538  1.0000
  H   H1181     1.0  0.73370  0.15738  0.20548  1.0000
  H   H1182     1.0  0.67823  0.11346  0.18875  1.0000
  H   H1183     1.0  0.70481  0.12685  0.15934  1.0000
  H   H1184     1.0  0.69076  0.11414  0.29192  1.0000
  H   H1185     1.0  0.67284  0.11543  0.25284  1.0000
  H   H1186     1.0  0.76798  0.16944  0.24085  1.0000
  H   H1187     1.0  0.77832  0.14553  0.24458  1.0000
  H   H1188     1.0  0.75617  0.10045  0.24350  1.0000
  H   H1189     1.0  0.72765  0.07466  0.22229  1.0000
  H   H1190     1.0  0.75054  0.08355  0.16432  1.0000
  H   H1191     1.0  0.77920  0.10864  0.18714  1.0000
  H   H1192     1.0  0.76672  0.07567  0.19991  1.0000
  H   H1193     1.0  0.70572  0.16974  0.16548  1.0000
  H   H1194     1.0  0.67545  0.14441  0.14715  1.0000
  H   H1195     1.0  0.67798  0.15480  0.19306  1.0000
  H   H1196     1.0  0.64463  0.08371  0.29481  1.0000
  H   H1197     1.0  0.64496  0.06789  0.25366  1.0000
  H   H1198     1.0  0.66297  0.06664  0.29319  1.0000
  H   H1199     1.0  0.78360  0.15219  0.31058  1.0000
  H   H1200     1.0  0.80257  0.18149  0.28725  1.0000
  H   H1201     1.0  0.77319  0.17643  0.30718  1.0000
  H   H1202     1.0  0.95163  0.11110  0.10358  1.0000
  C   C683      1.0  0.77537  0.19595  0.07401  1.0000
  H   H1203     1.0  0.57246  0.17694  0.43034  1.0000
  C   C684      1.0  0.94005  0.14189  0.00270  1.0000
  H   H1204     1.0  0.48520  0.15079  0.41967  1.0000
  N   N36       1.0  0.50918  0.19216  0.41994  1.0000
  H   H1205     1.0  0.81839  0.20390  0.04350  1.0000
  H   H1206     1.0  0.71741  0.14485  0.45553  1.0000
  H   H1207     1.0  0.52002  0.05256  0.09238  1.0000
  C   C685      1.0  0.91376  0.08093  0.46342  1.0000
  C   C686      1.0  0.96307  0.09665  0.36761  1.0000
  H   H1208     1.0  0.52975  0.23556  0.46845  1.0000
  H   H1209     1.0  0.47968  0.16027  0.99801  1.0000
  H   H1210     1.0  0.94787  0.05379  0.09334  1.0000
  H   H1211     1.0  0.90651  0.12140  0.46130  1.0000
  C   C687      1.0  0.81692  0.00649  0.45447  1.0000
  H   H1212     1.0  0.93422  0.06082  0.38737  1.0000
  H   H1213     1.0  0.48831  0.04600  0.37621  1.0000
  H   H1214     1.0  0.68308  0.13344  0.45372  1.0000
  C   C688      1.0  0.92674  0.06090  0.13463  1.0000
  H   H1215     1.0  0.53573  0.21214  0.35453  1.0000
  C   C689      1.0  0.53427  0.19115  0.42266  1.0000
  H   H1216     1.0  0.77510  0.20065  0.04539  1.0000
  H   H1217     1.0  0.80949  0.03868  0.44961  1.0000
  H   H1218     1.0  0.84792  0.00732  0.34648  1.0000
  C   C690      1.0  0.51355  0.09425  0.09742  1.0000
  H   H1219     1.0  0.90959  0.04891  0.15040  1.0000
  H   H1220     1.0  0.76202  0.20103  0.08790  1.0000
  H   H1221     1.0  0.88424  0.05177  0.35762  1.0000
  H   H1222     1.0  0.91522  0.09116  0.37262  1.0000
  H   H1223     1.0  0.86514  0.12265  0.41019  1.0000
  H   H1224     1.0  0.95511  0.08796  0.23302  1.0000
  C   C691      1.0  0.94478  0.12109  0.00798  1.0000
  H   H1225     1.0  0.89026  0.12211  0.22997  1.0000
  H   H1226     1.0  0.95315  0.09417  0.34099  1.0000
  H   H1227     1.0  0.95352  0.15072  0.08069  1.0000
  H   H1228     1.0  0.51086  0.10195  0.17171  1.0000
  H   H1229     1.0  0.88407  0.14586  0.44515  1.0000
  C   C692      1.0  0.50275  0.11124  0.15340  1.0000
  H   H1230     1.0  0.51810  0.13103  0.14790  1.0000
  H   H1231     1.0  0.97743  0.08964  0.36564  1.0000
  H   H1232     1.0  0.91015  0.12966  0.41507  1.0000
  N   N37       1.0  0.95051  0.10007  0.18005  1.0000
  H   H1233     1.0  0.52364  0.15072  0.43200  1.0000
  H   H1234     1.0  0.52626  0.09067  0.11663  1.0000
  H   H1235     1.0  0.59303  0.11002  0.03496  1.0000
  C   C693      1.0  0.92034  0.11518  0.20898  1.0000
  H   H1236     1.0  0.48418  0.19945  0.45359  1.0000
  C   C694      1.0  0.50380  0.01356  0.48341  1.0000
  H   H1237     1.0  0.93679  0.03009  0.12818  1.0000
  H   H1238     1.0  0.56122  0.15792  0.46955  1.0000
  C   C695      1.0  0.52629  0.08649  0.03903  1.0000
  C   C696      1.0  0.93187  0.04266  0.11133  1.0000
  C   C697      1.0  0.96350  0.15128  0.10664  1.0000
  C   C698      1.0  0.55381  0.09278  0.05309  1.0000
  C   C699      1.0  0.69871  0.13007  0.46560  1.0000
  C   C700      1.0  0.82192  0.20459  0.07300  1.0000
  C   C701      1.0  0.57353  0.10582  0.02447  1.0000
  H   H1239     1.0  0.49254  0.17667  0.47081  1.0000
  H   H1240     1.0  0.87646  0.08692  0.39559  1.0000
  H   H1241     1.0  0.95076  0.06344  0.17974  1.0000
  H   H1242     1.0  0.52756  0.10435  0.02783  1.0000
  H   H1243     1.0  0.52166  0.07310  0.01576  1.0000
  H   H1244     1.0  0.83810  0.17626  0.03864  1.0000
  H   H1245     1.0  0.93161  0.05526  0.45834  1.0000
  H   H1246     1.0  0.85710  0.19064  0.10224  1.0000
  H   H1247     1.0  0.55441  0.07491  0.06032  1.0000
  H   H1248     1.0  0.56020  0.10599  0.07684  1.0000
  H   H1249     1.0  0.86850  0.16163  0.02098  1.0000
  C   C702      1.0  0.49984  0.00107  0.99901  1.0000
  N   N38       1.0  0.50528  0.07551  0.06573  1.0000
  C   C703      1.0  0.83108  0.99681  0.47358  1.0000
  H   H1250     1.0  0.52556  0.11441  0.08851  1.0000
  C   C704      1.0  0.82038  0.03103  0.46413  1.0000
  S   S161      1.0  0.79494  0.98894  0.41826  1.0000
  H   H1251     1.0  0.85529  0.04548  0.38023  1.0000
  N   N39       1.0  0.90260  0.07702  0.42546  1.0000
  C   C705      1.0  0.88696  0.04861  0.41629  1.0000
  H   H1252     1.0  0.93081  0.10030  0.46678  1.0000
  C   C706      1.0  0.88445  0.08835  0.42335  1.0000
  C   C707      1.0  0.92365  0.09108  0.39961  1.0000
  C   C708      1.0  0.94363  0.08144  0.39568  1.0000
  C   C709      1.0  0.87173  0.04127  0.37974  1.0000
  C   C710      1.0  0.89624  0.11722  0.43478  1.0000
  H   H1253     1.0  0.96682  0.14138  0.17545  1.0000
  C   C711      1.0  0.95030  0.12462  0.12294  1.0000
  H   H1254     1.0  0.69505  0.11063  0.45660  1.0000
  H   H1255     1.0  0.49549  0.16318  0.37720  1.0000
  H   H1256     1.0  0.87256  0.03900  0.43709  1.0000
  H   H1257     1.0  0.80167  0.20693  0.11979  1.0000
  H   H1258     1.0  0.56848  0.09305  0.00031  1.0000
  C   C712      1.0  0.51319  0.21515  0.39831  1.0000
  H   H1259     1.0  0.57253  0.19212  0.47238  1.0000
  H   H1260     1.0  0.55045  0.21011  0.43200  1.0000
  C   C713      1.0  0.50251  0.04983  0.07666  1.0000
  H   H1261     1.0  0.84440  0.21477  0.13899  1.0000
  H   H1262     1.0  0.79087  0.22305  0.33495  1.0000
  C   C714      1.0  0.48088  0.07309  0.04770  1.0000
  H   H1263     1.0  0.48389  0.09252  0.04016  1.0000
  C   C715      1.0  0.51802  0.21381  0.35810  1.0000
  H   H1264     1.0  0.80842  0.23196  0.08889  1.0000
  C   C716      1.0  0.85408  0.23130  0.12103  1.0000
  N   N40       1.0  0.85036  0.22141  0.08282  1.0000
  H   H1265     1.0  0.49475  0.17145  0.12996  1.0000
  H   H1266     1.0  0.96796  0.12187  0.22948  1.0000
  C   C717      1.0  0.80259  0.21138  0.09094  1.0000
  H   H1267     1.0  0.85904  0.23529  0.02910  1.0000
  H   H1268     1.0  0.51571  0.00664  0.01846  1.0000
  H   H1269     1.0  0.75479  0.23635  0.99129  1.0000
  H   H1270     1.0  0.72038  0.22279  0.33757  1.0000
  H   H1271     1.0  0.84803  0.00108  0.39337  1.0000
  H   H1272     1.0  0.96248  0.16578  0.12454  1.0000
  C   C718      1.0  0.47847  0.13522  0.29455  1.0000
  C   C719      1.0  0.56182  0.17455  0.45511  1.0000
  S   S162      1.0  0.80178  0.99228  0.02012  1.0000
  H   H1273     1.0  0.53006  0.23290  0.40956  1.0000
  H   H1274     1.0  0.50150  0.19724  0.34415  1.0000
  C   C720      1.0  0.48287  0.16248  0.02673  1.0000
  H   H1275     1.0  0.77028  0.23375  0.38367  1.0000
  C   C721      1.0  0.49191  0.09533  0.11868  1.0000
  H   H1276     1.0  0.86676  0.20261  0.02202  1.0000
  H   H1277     1.0  0.48269  0.10462  0.10240  1.0000
  H   H1278     1.0  0.49554  0.00876  0.11933  1.0000
  H   H1279     1.0  0.81296  0.23714  0.37298  1.0000
  H   H1280     1.0  0.48176  0.04204  0.12625  1.0000
  C   C722      1.0  0.47933  0.03290  0.09948  1.0000
  C   C723      1.0  0.50056  0.19513  0.45635  1.0000
  H   H1281     1.0  0.82733  0.98787  0.28914  1.0000
  H   H1282     1.0  0.48387  0.06473  0.99139  1.0000
  C   C724      1.0  0.52142  0.21658  0.48132  1.0000
  H   H1283     1.0  0.89193  0.23513  0.13787  1.0000
  H   H1284     1.0  0.53734  0.21226  0.48841  1.0000
  C   C725      1.0  0.96689  0.12205  0.99324  1.0000
  C   C726      1.0  0.48871  0.16736  0.40252  1.0000
  S   S163      1.0  0.59359  0.12541  0.52413  1.0000
  Fe  Fe83      1.0  0.87763  0.14042  0.58239  1.0000
  S   S164      1.0  0.87403  0.10717  0.61488  1.0000
  S   S165      1.0  0.84769  0.15518  0.58085  1.0000
  Fe  Fe84      1.0  0.93092  0.15005  0.55421  1.0000
  S   S166      1.0  0.93033  0.11777  0.58629  1.0000
  H   H1285     1.0  0.94223  0.05532  0.52299  1.0000
  Fe  Fe85      1.0  0.88839  0.09543  0.56674  1.0000
  S   S167      1.0  0.87417  0.05377  0.54743  1.0000
  Fe  Fe86      1.0  0.91611  0.13259  0.63114  1.0000
  S   S168      1.0  0.92626  0.13810  0.69123  1.0000
  S   S169      1.0  0.88960  0.12721  0.53277  1.0000
  S   S170      1.0  0.91915  0.16634  0.60049  1.0000
  Fe  Fe87      1.0  0.71055  0.18891  0.66598  1.0000
  S   S171      1.0  0.70476  0.15117  0.68712  1.0000
  S   S172      1.0  0.70102  0.19419  0.60839  1.0000
  Fe  Fe88      1.0  0.73850  0.21837  0.73547  1.0000
  S   S173      1.0  0.73502  0.18250  0.76080  1.0000
  Fe  Fe89      1.0  0.74633  0.17361  0.70715  1.0000
  S   S174      1.0  0.77393  0.15633  0.70261  1.0000
  Fe  Fe90      1.0  0.69398  0.16355  0.73831  1.0000
  S   S175      1.0  0.65910  0.13535  0.76925  1.0000
  S   S176      1.0  0.75266  0.21104  0.68376  1.0000
  S   S177      1.0  0.69683  0.19961  0.71524  1.0000
  Fe  Fe91      1.0  0.54393  0.13109  0.89335  1.0000
  S   S178      1.0  0.50720  0.10151  0.86450  1.0000
  S   S179      1.0  0.58345  0.15508  0.86832  1.0000
  Fe  Fe92      1.0  0.51443  0.13114  0.96058  1.0000
  Fe  Fe93      1.0  0.49759  0.08076  0.91743  1.0000
  H   H1286     1.0  0.76903  0.10096  0.61369  1.0000
  C   C727      1.0  0.95627  0.21326  0.76230  1.0000
  S   S180      1.0  0.53536  0.10916  0.94487  1.0000
  S   S181      1.0  0.52629  0.15555  0.91187  1.0000
  C   C728      1.0  0.84472  0.18162  0.74575  1.0000
  H   H1287     1.0  0.86025  0.19131  0.67816  1.0000
  C   C729      1.0  0.61302  0.17030  0.71649  1.0000
  H   H1288     1.0  0.56920  0.12924  0.77240  1.0000
  H   H1289     1.0  0.61143  0.12339  0.66057  1.0000
  H   H1290     1.0  0.72514  0.18495  0.84173  1.0000
  H   H1291     1.0  0.71347  0.10574  0.51712  1.0000
  H   H1292     1.0  0.65476  0.15524  0.93023  1.0000
  C   C730      1.0  0.73439  0.19946  0.86406  1.0000
  C   C731      1.0  0.63810  0.14120  0.79639  1.0000
  C   C732      1.0  0.64214  0.16607  0.80396  1.0000
  C   C733      1.0  0.62516  0.16981  0.82589  1.0000
  C   C734      1.0  0.60380  0.14881  0.84040  1.0000
  C   C735      1.0  0.59958  0.12390  0.83247  1.0000
  C   C736      1.0  0.61668  0.12017  0.81072  1.0000
  H   H1293     1.0  0.65835  0.18241  0.79291  1.0000
  H   H1294     1.0  0.62842  0.18912  0.83153  1.0000
  H   H1295     1.0  0.58329  0.10753  0.84339  1.0000
  H   H1296     1.0  0.61332  0.10082  0.80508  1.0000
  H   H1297     1.0  0.63205  0.13677  0.69998  1.0000
  H   H1298     1.0  0.87890  0.18525  0.77345  1.0000
  C   C737      1.0  0.71976  0.12627  0.52397  1.0000
  H   H1299     1.0  0.77037  0.19056  0.82921  1.0000
  H   H1300     1.0  0.54520  0.11901  0.65523  1.0000
  H   H1301     1.0  0.63888  0.21316  0.76284  1.0000
  S   S182      1.0  0.96604  0.17805  0.52303  1.0000
  C   C738      1.0  0.95724  0.15008  0.71281  1.0000
  H   H1302     1.0  0.62851  0.09523  0.68364  1.0000
  C   C739      1.0  0.95966  0.15442  0.75005  1.0000
  H   H1303     1.0  0.96589  0.20454  0.89765  1.0000
  H   H1304     1.0  0.94275  0.15074  0.76443  1.0000
  C   C740      1.0  0.82673  0.15483  0.61451  1.0000
  C   C741      1.0  0.81527  0.17094  0.61145  1.0000
  C   C742      1.0  0.79893  0.17156  0.63780  1.0000
  C   C743      1.0  0.79355  0.15582  0.66754  1.0000
  C   C744      1.0  0.80464  0.13940  0.67021  1.0000
  C   C745      1.0  0.82096  0.13880  0.64387  1.0000
  H   H1305     1.0  0.81939  0.18332  0.58875  1.0000
  H   H1306     1.0  0.79069  0.18438  0.63528  1.0000
  H   H1307     1.0  0.80048  0.12692  0.69280  1.0000
  H   H1308     1.0  0.82902  0.12581  0.64619  1.0000
  C   C746      1.0  0.62419  0.14329  0.54647  1.0000
  C   C747      1.0  0.62613  0.14166  0.58377  1.0000
  C   C748      1.0  0.64960  0.15692  0.60307  1.0000
  C   C749      1.0  0.67137  0.17405  0.58513  1.0000
  C   C750      1.0  0.66962  0.17535  0.54774  1.0000
  C   C751      1.0  0.64616  0.15990  0.52841  1.0000
  H   H1309     1.0  0.60931  0.12848  0.59766  1.0000
  H   H1310     1.0  0.65090  0.15565  0.63177  1.0000
  H   H1311     1.0  0.68641  0.18854  0.53368  1.0000
  H   H1312     1.0  0.83880  0.19062  0.72403  1.0000
  H   H1313     1.0  0.50686  0.19781  0.86766  1.0000
  H   H1314     1.0  0.62982  0.17284  0.70103  1.0000
  H   H1315     1.0  0.86976  0.21056  0.61681  1.0000
  C   C752      1.0  0.55916  0.13430  0.60418  1.0000
  C   C753      1.0  0.83442  0.18648  0.78021  1.0000
  C   C754      1.0  0.96091  0.19994  0.86870  1.0000
  H   H1316     1.0  0.84310  0.20747  0.78619  1.0000
  H   H1317     1.0  0.97412  0.14157  0.89666  1.0000
  H   H1318     1.0  0.58089  0.16702  0.65891  1.0000
  C   C755      1.0  0.96060  0.12615  0.87745  1.0000
  H   H1319     1.0  0.94693  0.08394  0.87517  1.0000
  H   H1320     1.0  0.55078  0.14757  0.60533  1.0000
  H   H1321     1.0  0.81312  0.17840  0.77696  1.0000
  C   C756      1.0  0.68055  0.12018  0.59195  1.0000
  H   H1322     1.0  0.96552  0.23361  0.75390  1.0000
  C   C757      1.0  0.63779  0.21767  0.73428  1.0000
  H   H1323     1.0  0.65515  0.21958  0.72101  1.0000
  H   H1324     1.0  0.85533  0.15189  0.69777  1.0000
  H   H1325     1.0  0.84425  0.00421  0.97208  1.0000
  H   H1326     1.0  0.96976  0.13159  0.85112  1.0000
  H   H1327     1.0  0.86168  0.10171  0.74842  1.0000
  C   C758      1.0  0.71365  0.22393  0.84165  1.0000
  H   H1328     1.0  0.76453  0.13930  0.55972  1.0000
  H   H1329     1.0  0.95739  0.09857  0.91876  1.0000
  N   N41       1.0  0.93448  0.12528  0.87577  1.0000
  C   C759      1.0  0.91805  0.10869  0.90506  1.0000
  H   H1330     1.0  0.95785  0.08735  0.50557  1.0000
  C   C760      1.0  0.93859  0.15228  0.88238  1.0000
  C   C761      1.0  0.92137  0.11634  0.83925  1.0000
  C   C762      1.0  0.91409  0.08859  0.82717  1.0000
  C   C763      1.0  0.89132  0.10726  0.90879  1.0000
  C   C764      1.0  0.95849  0.17370  0.85895  1.0000
  C   C765      1.0  0.65684  0.09792  0.60753  1.0000
  C   C766      1.0  0.89828  0.08130  0.79173  1.0000
  H   H1331     1.0  0.54788  0.12644  0.71274  1.0000
  H   H1332     1.0  0.53950  0.16012  0.76886  1.0000
  H   H1333     1.0  0.92881  0.11571  0.93133  1.0000
  H   H1334     1.0  0.91434  0.08853  0.90202  1.0000
  H   H1335     1.0  0.89592  0.14642  0.74506  1.0000
  C   C767      1.0  0.87557  0.15977  0.70800  1.0000
  H   H1336     1.0  0.94487  0.15831  0.91076  1.0000
  H   H1337     1.0  0.92019  0.15295  0.87806  1.0000
  H   H1338     1.0  0.90374  0.11864  0.83686  1.0000
  H   H1339     1.0  0.93412  0.12877  0.81850  1.0000
  H   H1340     1.0  0.90244  0.07427  0.84699  1.0000
  H   H1341     1.0  0.74355  0.20909  0.55679  1.0000
  H   H1342     1.0  0.89345  0.12638  0.91624  1.0000
  H   H1343     1.0  0.87940  0.10011  0.88358  1.0000
  H   H1344     1.0  0.95244  0.16988  0.83027  1.0000
  H   H1345     1.0  0.48353  0.00416  0.53271  1.0000
  C   C768      1.0  0.77912  0.20712  0.84860  1.0000
  H   H1346     1.0  0.88581  0.15665  0.68565  1.0000
  H   H1347     1.0  0.90915  0.09496  0.77061  1.0000
  H   H1348     1.0  0.89405  0.06166  0.78285  1.0000
  H   H1349     1.0  0.87963  0.08130  0.79487  1.0000
  H   H1350     1.0  0.64753  0.08154  0.58792  1.0000
  C   C769      1.0  0.61197  0.09562  0.69634  1.0000
  H   H1351     1.0  0.76333  0.07704  0.57954  1.0000
  C   C770      1.0  0.70144  0.11222  0.58382  1.0000
  H   H1352     1.0  0.54144  0.99198  0.50697  1.0000
  C   C771      1.0  0.61315  0.19658  0.71573  1.0000
  H   H1353     1.0  0.83866  0.17695  0.80298  1.0000
  C   C772      1.0  0.74720  0.12682  0.57488  1.0000
  H   H1354     1.0  0.76002  0.22670  0.82557  1.0000
  H   H1355     1.0  0.88760  0.09549  0.96438  1.0000
  H   H1356     1.0  0.84000  0.06446  0.49976  1.0000
  H   H1357     1.0  0.64765  0.13986  0.88634  1.0000
  H   H1358     1.0  0.83492  0.16050  0.74064  1.0000
  H   H1359     1.0  0.96535  0.13167  0.49451  1.0000
  H   H1360     1.0  0.77387  0.17936  0.56719  1.0000
  H   H1361     1.0  0.70773  0.10852  0.61061  1.0000
  H   H1362     1.0  0.57745  0.14379  0.58985  1.0000
  H   H1363     1.0  0.67966  0.19576  0.89852  1.0000
  C   C773      1.0  0.66121  0.14586  0.91017  1.0000
  H   H1364     1.0  0.92390  0.19072  0.70579  1.0000
  H   H1365     1.0  0.50178  0.16024  0.80553  1.0000
  H   H1366     1.0  0.70196  0.15139  0.51348  1.0000
  H   H1367     1.0  0.91527  0.20720  0.65418  1.0000
  H   H1368     1.0  0.50661  0.18908  0.75487  1.0000
  H   H1369     1.0  0.73720  0.18871  0.88637  1.0000
  H   H1370     1.0  0.56035  0.16012  0.71187  1.0000
  H   H1371     1.0  0.74155  0.99261  0.92085  1.0000
  H   H1372     1.0  0.87282  0.06906  0.93199  1.0000
  C   C774      1.0  0.61286  0.12150  0.68978  1.0000
  H   H1373     1.0  0.73502  0.16105  0.60421  1.0000
  C   C775      1.0  0.56383  0.12712  0.64185  1.0000
  H   H1374     1.0  0.59374  0.07958  0.68468  1.0000
  H   H1375     1.0  0.58337  0.16377  0.77301  1.0000
  H   H1376     1.0  0.60373  0.15690  0.64912  1.0000
  C   C776      1.0  0.69356  0.23373  0.84420  1.0000
  C   C777      1.0  0.87587  0.14232  0.73840  1.0000
  H   H1377     1.0  0.74945  0.21316  0.93421  1.0000
  C   C778      1.0  0.56521  0.14494  0.72067  1.0000
  C   C779      1.0  0.87456  0.19296  0.74876  1.0000
  H   H1378     1.0  0.74061  0.09356  0.54066  1.0000
  H   H1379     1.0  0.54419  0.14438  0.80716  1.0000
  H   H1380     1.0  0.83997  0.10834  0.72088  1.0000
  H   H1381     1.0  0.91863  0.18274  0.77380  1.0000
  H   H1382     1.0  0.61347  0.09275  0.72545  1.0000
  H   H1383     1.0  0.75277  0.13242  0.60365  1.0000
  H   H1384     1.0  0.92973  0.07706  0.53221  1.0000
  H   H1385     1.0  0.48176  0.21819  0.84267  1.0000
  C   C780      1.0  0.95729  0.16334  0.98327  1.0000
  H   H1386     1.0  0.57228  0.10580  0.70147  1.0000
  H   H1387     1.0  0.61240  0.20233  0.68774  1.0000
  C   C781      1.0  0.75617  0.17994  0.55761  1.0000
  C   C782      1.0  0.87651  0.08894  0.93835  1.0000
  H   H1388     1.0  0.95345  0.17934  0.97962  1.0000
  H   H1389     1.0  0.64490  0.16133  0.49970  1.0000
  H   H1390     1.0  0.86871  0.11011  0.70252  1.0000
  C   C783      1.0  0.51000  0.21902  0.51623  1.0000
  N   N42       1.0  0.88684  0.18810  0.71697  1.0000
  H   H1391     1.0  0.86706  0.14478  0.76272  1.0000
  H   H1392     1.0  0.54546  0.11667  0.58861  1.0000
  C   C784      1.0  0.86059  0.11391  0.72677  1.0000
  H   H1393     1.0  0.88314  0.21411  0.75401  1.0000
  H   H1394     1.0  0.56939  0.11174  0.63927  1.0000
  C   C785      1.0  0.73186  0.15841  0.57458  1.0000
  C   C786      1.0  0.68876  0.16418  0.89960  1.0000
  H   H1395     1.0  0.92265  0.21468  0.77884  1.0000
  H   H1396     1.0  0.70840  0.21120  0.81724  1.0000
  C   C787      1.0  0.76159  0.21935  0.85217  1.0000
  H   H1397     1.0  0.85905  0.00371  0.51677  1.0000
  H   H1398     1.0  0.68841  0.13627  0.61200  1.0000
  H   H1399     1.0  0.78253  0.20045  0.87490  1.0000
  H   H1400     1.0  0.71355  0.23572  0.91259  1.0000
  H   H1401     1.0  0.66233  0.09140  0.63256  1.0000
  H   H1402     1.0  0.69165  0.09319  0.56939  1.0000
  C   C788      1.0  0.96139  0.10146  0.88990  1.0000
  C   C789      1.0  0.72780  0.22956  0.90460  1.0000
  C   C790      1.0  0.75992  0.20660  0.56782  1.0000
  H   H1403     1.0  0.61769  0.16694  0.74421  1.0000
  C   C791      1.0  0.88130  0.20073  0.68530  1.0000
  C   C792      1.0  0.59084  0.12334  0.70880  1.0000
  H   H1404     1.0  0.85763  0.08850  0.94114  1.0000
  C   C793      1.0  0.49926  0.01986  0.97631  1.0000
  H   H1405     1.0  0.59660  0.19599  0.72957  1.0000
  H   H1406     1.0  0.52540  0.23416  0.53383  1.0000
  C   C794      1.0  0.58531  0.15087  0.66282  1.0000
  H   H1407     1.0  0.69427  0.15346  0.88032  1.0000
  H   H1408     1.0  0.72587  0.08471  0.58325  1.0000
  H   H1409     1.0  0.67404  0.12665  0.56802  1.0000
  C   C795      1.0  0.89422  0.20008  0.65021  1.0000
  N   N43       1.0  0.58860  0.14735  0.70219  1.0000
  H   H1410     1.0  0.59438  0.12174  0.73782  1.0000
  H   H1411     1.0  0.88523  0.18007  0.63935  1.0000
  N   N44       1.0  0.72464  0.13106  0.56384  1.0000
  H   H1412     1.0  0.71583  0.16262  0.56813  1.0000
  H   H1413     1.0  0.70171  0.16894  0.92369  1.0000
  C   C796      1.0  0.48623  0.99650  0.50788  1.0000
  H   H1414     1.0  0.77803  0.22168  0.55676  1.0000
  H   H1415     1.0  0.94256  0.20019  0.86198  1.0000
  H   H1416     1.0  0.93187  0.08722  0.82249  1.0000
  H   H1417     1.0  0.52525  0.12531  0.76891  1.0000
  H   H1418     1.0  0.51478  0.03944  0.97798  1.0000
  C   C797      1.0  0.54242  0.14373  0.77750  1.0000
  H   H1419     1.0  0.50176  0.20055  0.53057  1.0000
  H   H1420     1.0  0.67829  0.18083  0.85672  1.0000
  C   C798      1.0  0.56694  0.14563  0.76217  1.0000
  H   H1421     1.0  0.67944  0.11727  0.51432  1.0000
  H   H1422     1.0  0.64256  0.10437  0.61389  1.0000
  C   C799      1.0  0.74305  0.09900  0.56949  1.0000
  C   C800      1.0  0.73593  0.22074  0.93928  1.0000
  N   N45       1.0  0.71672  0.21018  0.87386  1.0000
  H   H1423     1.0  0.73804  0.13729  0.50987  1.0000
  H   H1424     1.0  0.63774  0.23640  0.73296  1.0000
  C   C801      1.0  0.85177  0.03599  0.51172  1.0000
  H   H1425     1.0  0.75455  0.17815  0.52804  1.0000
  C   C802      1.0  0.91593  0.20050  0.72296  1.0000
  C   C803      1.0  0.92688  0.20190  0.76166  1.0000
  H   H1426     1.0  0.79803  0.22160  0.83869  1.0000
  H   H1427     1.0  0.66042  0.12833  0.92196  1.0000
  H   H1428     1.0  0.78424  0.11057  0.57124  1.0000
  H   H1429     1.0  0.96367  0.21268  0.78970  1.0000
  H   H1430     1.0  0.49232  0.20697  0.90232  1.0000
  C   C804      1.0  0.69025  0.18850  0.88191  1.0000
  C   C805      1.0  0.76637  0.09686  0.58442  1.0000
  C   C806      1.0  0.69886  0.13188  0.50636  1.0000
  H   H1431     1.0  0.76127  0.20933  0.59735  1.0000
  C   C807      1.0  0.93889  0.07085  0.51171  1.0000
  C   C808      1.0  0.47891  0.01317  0.95096  1.0000
  C   C809      1.0  0.83768  0.04571  0.49256  1.0000
  C   C810      1.0  0.84831  0.01145  0.50209  1.0000
  C   C811      1.0  0.49019  0.18285  0.77159  1.0000
  C   C812      1.0  0.48752  0.16649  0.80030  1.0000
  H   H1432     1.0  0.67409  0.21786  0.84945  1.0000
  H   H1433     1.0  0.71861  0.20588  0.95208  1.0000
  Fe  Fe94      1.0  0.48944  0.12516  0.88524  1.0000
  C   C813      1.0  0.50710  0.21451  0.88173  1.0000
  H   H1434     1.0  0.92526  0.22092  0.71440  1.0000
  C   C814      1.0  0.50116  0.23059  0.85498  1.0000
  H   H1435     1.0  0.52653  0.22612  0.89495  1.0000
  H   H1436     1.0  0.89852  0.21447  0.59641  1.0000
  H   H1437     1.0  0.96196  0.20215  0.74406  1.0000
  H   H1438     1.0  0.88719  0.22124  0.69211  1.0000
  H   H1439     1.0  0.68649  0.23228  0.78638  1.0000
  H   H1440     1.0  0.77128  0.23585  0.87143  1.0000
  C   C815      1.0  0.89057  0.21668  0.62187  1.0000
  H   H1441     1.0  0.90086  0.23730  0.63046  1.0000
  H   H1442     1.0  0.51519  0.23580  0.83353  1.0000
  H   H1443     1.0  0.75205  0.98830  0.96481  1.0000
  H   H1444     1.0  0.97659  0.21517  0.85360  1.0000
  H   H1445     1.0  0.49469  0.22454  0.51096  1.0000
  H   H1446     1.0  0.97799  0.17539  0.86263  1.0000
  H   H1447     1.0  0.97764  0.15190  0.66553  1.0000
  S   S183      1.0  0.60503  0.44751  0.01398  1.0000
  H   H1448     1.0  0.52752  0.48347  0.09921  1.0000
  S   S184      1.0  0.81894  0.44191  0.40762  1.0000
  C   C816      1.0  0.88241  0.24736  0.13568  1.0000
  S   S185      1.0  0.86581  0.43175  0.43974  1.0000
  C   C817      1.0  0.74820  0.45608  0.45625  1.0000
  Fe  Fe95      1.0  0.84383  0.42560  0.38662  1.0000
  S   S186      1.0  0.81971  0.38925  0.35135  1.0000
  H   H1449     1.0  0.88201  0.36627  0.05769  1.0000
  S   S187      1.0  0.87332  0.46363  0.36484  1.0000
  S   S188      1.0  0.83900  0.37250  0.02605  1.0000
  Fe  Fe96      1.0  0.52174  0.38906  0.46228  1.0000
  Fe  Fe97      1.0  0.55268  0.42142  0.39868  1.0000
  S   S189      1.0  0.51665  0.41850  0.37181  1.0000
  S   S190      1.0  0.59167  0.43546  0.37195  1.0000
  Fe  Fe98      1.0  0.50633  0.42618  0.42672  1.0000
  H   H1450     1.0  0.58893  0.48123  0.34614  1.0000
  Fe  Fe99      1.0  0.49778  0.37666  0.38619  1.0000
  S   S191      1.0  0.54378  0.43187  0.45285  1.0000
  S   S192      1.0  0.53386  0.37898  0.41094  1.0000
  Fe  Fe100     1.0  0.78577  0.25226  0.16113  1.0000
  S   S193      1.0  0.82209  0.25747  0.18985  1.0000
  S   S194      1.0  0.78715  0.26351  0.10234  1.0000
  Fe  Fe101     1.0  0.80593  0.26598  0.23888  1.0000
  S   S195      1.0  0.83209  0.29708  0.28031  1.0000
  S   S196      1.0  0.77067  0.26301  0.20943  1.0000
  H   H1451     1.0  0.56114  0.32445  0.46042  1.0000
  C   C818      1.0  0.82564  0.34197  0.04673  1.0000
  C   C819      1.0  0.82415  0.34103  0.08418  1.0000
  C   C820      1.0  0.81306  0.31729  0.10177  1.0000
  C   C821      1.0  0.80305  0.29412  0.08203  1.0000
  C   C822      1.0  0.80497  0.29507  0.04462  1.0000
  C   C823      1.0  0.81633  0.31882  0.02706  1.0000
  H   H1452     1.0  0.83126  0.35877  0.09971  1.0000
  H   H1453     1.0  0.81165  0.31692  0.13051  1.0000
  H   H1454     1.0  0.79726  0.27729  0.02905  1.0000
  C   C824      1.0  0.52296  0.33456  0.23486  1.0000
  H   H1455     1.0  0.51945  0.42081  0.01032  1.0000
  C   C825      1.0  0.94420  0.41265  0.08100  1.0000
  C   C826      1.0  0.82466  0.36483  0.33055  1.0000
  C   C827      1.0  0.80651  0.34858  0.30403  1.0000
  C   C828      1.0  0.80869  0.32807  0.28799  1.0000
  C   C829      1.0  0.82900  0.32336  0.29850  1.0000
  C   C830      1.0  0.84723  0.33965  0.32488  1.0000
  C   C831      1.0  0.84517  0.36031  0.34074  1.0000
  H   H1456     1.0  0.79057  0.35187  0.29590  1.0000
  H   H1457     1.0  0.79464  0.31590  0.26755  1.0000
  H   H1458     1.0  0.86302  0.33620  0.33325  1.0000
  H   H1459     1.0  0.85919  0.37247  0.36121  1.0000
  H   H1460     1.0  0.61046  0.39966  0.01441  1.0000
  H   H1461     1.0  0.66782  0.42134  0.02803  1.0000
  C   C832      1.0  0.49740  0.29515  0.32067  1.0000
  H   H1462     1.0  0.50985  0.32860  0.35586  1.0000
  H   H1463     1.0  0.51402  0.29265  0.32741  1.0000
  H   H1464     1.0  0.76252  0.42786  0.45486  1.0000
  H   H1465     1.0  0.49751  0.31518  0.42320  1.0000
  C   C833      1.0  0.61125  0.46131  0.34374  1.0000
  H   H1466     1.0  0.81620  0.25624  0.33433  1.0000
  H   H1467     1.0  0.88230  0.44131  0.03031  1.0000
  H   H1468     1.0  0.49507  0.39484  0.30062  1.0000
  H   H1469     1.0  0.48298  0.25910  0.41569  1.0000
  H   H1470     1.0  0.88948  0.29609  0.04362  1.0000
  C   C834      1.0  0.62936  0.47299  0.04045  1.0000
  C   C835      1.0  0.72091  0.48033  0.09637  1.0000
  C   C836      1.0  0.63508  0.46817  0.07542  1.0000
  C   C837      1.0  0.88444  0.33626  0.11286  1.0000
  H   H1471     1.0  0.62377  0.44927  0.08628  1.0000
  H   H1472     1.0  0.96778  0.41368  0.01459  1.0000
  H   H1473     1.0  0.51527  0.35997  0.29192  1.0000
  H   H1474     1.0  0.90988  0.37363  0.00805  1.0000
  C   C838      1.0  0.78397  0.24967  0.36736  1.0000
  C   C839      1.0  0.92767  0.38590  0.02486  1.0000
  N   N46       1.0  0.75453  0.46740  0.41968  1.0000
  H   H1475     1.0  0.79840  0.31137  0.43207  1.0000
  C   C840      1.0  0.51720  0.32224  0.19739  1.0000
  H   H1476     1.0  0.51981  0.45785  0.03969  1.0000
  C   C841      1.0  0.49499  0.30473  0.44862  1.0000
  H   H1477     1.0  0.55736  0.33872  0.36387  1.0000
  C   C842      1.0  0.94864  0.40446  0.00011  1.0000
  C   C843      1.0  0.75055  0.44630  0.39326  1.0000
  H   H1478     1.0  0.59517  0.40098  0.27181  1.0000
  H   H1479     1.0  0.51913  0.29159  0.47951  1.0000
  H   H1480     1.0  0.88941  0.32156  0.12329  1.0000
  H   H1481     1.0  0.53680  0.39040  0.31062  1.0000
  H   H1482     1.0  0.73228  0.42835  0.39784  1.0000
  H   H1483     1.0  0.53292  0.41361  0.26148  1.0000
  C   C844      1.0  0.90608  0.35523  0.09000  1.0000
  C   C845      1.0  0.70783  0.45996  0.40770  1.0000
  H   H1484     1.0  0.79593  0.26648  0.38544  1.0000
  H   H1485     1.0  0.57387  0.35530  0.28573  1.0000
  Fe  Fe102     1.0  0.89375  0.47086  0.41966  1.0000
  C   C846      1.0  0.78166  0.30690  0.37797  1.0000
  H   H1486     1.0  0.51242  0.33375  0.17823  1.0000
  H   H1487     1.0  0.77656  0.32473  0.42601  1.0000
  H   H1488     1.0  0.69492  0.24786  0.35006  1.0000
  H   H1489     1.0  0.50536  0.33519  0.24302  1.0000
  C   C847      1.0  0.72280  0.27357  0.25807  1.0000
  C   C848      1.0  0.54676  0.36197  0.23561  1.0000
  H   H1490     1.0  0.77640  0.31875  0.36015  1.0000
  H   H1491     1.0  0.51678  0.38537  0.23234  1.0000
  C   C849      1.0  0.76961  0.25698  0.33788  1.0000
  H   H1492     1.0  0.88392  0.25329  0.06116  1.0000
  H   H1493     1.0  0.91024  0.43135  0.09440  1.0000
  H   H1494     1.0  0.55402  0.46397  0.08860  1.0000
  H   H1495     1.0  0.59143  0.39141  0.33129  1.0000
  C   C850      1.0  0.60206  0.44502  0.23699  1.0000
  H   H1496     1.0  0.86800  0.27915  0.00551  1.0000
  H   H1497     1.0  0.92455  0.43125  0.02696  1.0000
  C   C851      1.0  0.47902  0.46662  0.00195  1.0000
  H   H1498     1.0  0.54305  0.37274  0.21416  1.0000
  H   H1499     1.0  0.57816  0.41563  0.29098  1.0000
  H   H1500     1.0  0.76151  0.24094  0.31754  1.0000
  H   H1501     1.0  0.50038  0.30256  0.19792  1.0000
  H   H1502     1.0  0.95231  0.45682  0.39540  1.0000
  S   S197      1.0  0.48413  0.38380  0.43846  1.0000
  H   H1503     1.0  0.58460  0.36605  0.38532  1.0000
  H   H1504     1.0  0.74120  0.29014  0.25017  1.0000
  H   H1505     1.0  0.56260  0.41758  0.22392  1.0000
  C   C852      1.0  0.51944  0.30133  0.45418  1.0000
  H   H1506     1.0  0.74029  0.25089  0.27567  1.0000
  H   H1507     1.0  0.49568  0.31820  0.47013  1.0000
  C   C853      1.0  0.75766  0.28025  0.38292  1.0000
  H   H1508     1.0  0.89449  0.40366  0.02028  1.0000
  C   C854      1.0  0.89816  0.42489  0.06926  1.0000
  H   H1509     1.0  0.73423  0.41287  0.33410  1.0000
  N   N47       1.0  0.55356  0.37651  0.27109  1.0000
  C   C855      1.0  0.95542  0.46949  0.47915  1.0000
  H   H1510     1.0  0.81716  0.47337  0.30471  1.0000
  C   C856      1.0  0.76542  0.44479  0.47131  1.0000
  C   C857      1.0  0.80207  0.24101  0.35127  1.0000
  C   C858      1.0  0.86254  0.24309  0.05700  1.0000
  H   H1511     1.0  0.86605  0.32618  0.09659  1.0000
  C   C859      1.0  0.96212  0.44160  0.07323  1.0000
  H   H1512     1.0  0.62065  0.44568  0.24521  1.0000
  H   H1513     1.0  0.52634  0.32152  0.25278  1.0000
  H   H1514     1.0  0.59655  0.48695  0.11733  1.0000
  S   S198      1.0  0.48309  0.25351  0.27505  1.0000
  H   H1515     1.0  0.74167  0.48373  0.99308  1.0000
  H   H1516     1.0  0.52115  0.28998  0.43179  1.0000
  H   H1517     1.0  0.55965  0.38054  0.34733  1.0000
  H   H1518     1.0  0.70067  0.45349  0.43478  1.0000
  H   H1519     1.0  0.83269  0.25452  0.04627  1.0000
  C   C860      1.0  0.86901  0.28593  0.03354  1.0000
  C   C861      1.0  0.51980  0.39249  0.26038  1.0000
  H   H1520     1.0  0.76147  0.27074  0.40619  1.0000
  C   C862      1.0  0.88354  0.25838  0.17311  1.0000
  H   H1521     1.0  0.78696  0.46978  0.25428  1.0000
  H   H1522     1.0  0.58950  0.34989  0.34775  1.0000
  H   H1523     1.0  0.67169  0.45912  0.39148  1.0000
  H   H1524     1.0  0.68694  0.48074  0.04530  1.0000
  Fe  Fe103     1.0  0.84341  0.45143  0.45842  1.0000
  C   C863      1.0  0.75082  0.43207  0.32920  1.0000
  H   H1525     1.0  0.95629  0.40284  0.08220  1.0000
  H   H1526     1.0  0.90778  0.34367  0.06786  1.0000
  H   H1527     1.0  0.74863  0.47049  0.47593  1.0000
  C   C864      1.0  0.75025  0.45275  0.35323  1.0000
  C   C865      1.0  0.60574  0.48126  0.33547  1.0000
  C   C866      1.0  0.48518  0.47184  0.46731  1.0000
  H   H1528     1.0  0.92434  0.36401  0.10662  1.0000
  H   H1529     1.0  0.89433  0.38390  0.09874  1.0000
  C   C867      1.0  0.49511  0.31555  0.33681  1.0000
  C   C868      1.0  0.89984  0.37623  0.07533  1.0000
  H   H1530     1.0  0.96702  0.44494  0.04489  1.0000
  H   H1531     1.0  0.93794  0.42312  0.38358  1.0000
  H   H1532     1.0  0.74218  0.28451  0.39132  1.0000
  H   H1533     1.0  0.74960  0.43670  0.30074  1.0000
  H   H1534     1.0  0.75887  0.29236  0.31172  1.0000
  H   H1535     1.0  0.70975  0.28074  0.26771  1.0000
  H   H1536     1.0  0.54261  0.34274  0.30317  1.0000
  H   H1537     1.0  0.72175  0.45515  0.05563  1.0000
  N   N48       1.0  0.74861  0.26246  0.35044  1.0000
  C   C869      1.0  0.89482  0.44733  0.05512  1.0000
  H   H1538     1.0  0.65183  0.44022  0.02953  1.0000
  H   H1539     1.0  0.60452  0.45481  0.21110  1.0000
  C   C870      1.0  0.49354  0.38796  0.27258  1.0000
  H   H1540     1.0  0.93615  0.45324  0.47709  1.0000
  C   C871      1.0  0.79178  0.32180  0.41351  1.0000
  H   H1541     1.0  0.58559  0.40759  0.21164  1.0000
  H   H1542     1.0  0.52737  0.42183  0.05740  1.0000
  C   C872      1.0  0.57719  0.40267  0.26850  1.0000
  H   H1543     1.0  0.88547  0.45353  0.07536  1.0000
  H   H1544     1.0  0.73258  0.45403  0.34553  1.0000
  H   H1545     1.0  0.71342  0.26091  0.23409  1.0000
  H   H1546     1.0  0.89372  0.26379  0.11837  1.0000
  C   C873      1.0  0.69274  0.47282  0.39186  1.0000
  H   H1547     1.0  0.56361  0.36004  0.22673  1.0000
  H   H1548     1.0  0.79574  0.48003  0.41954  1.0000
  H   H1549     1.0  0.95670  0.44679  0.35163  1.0000
  H   H1550     1.0  0.53402  0.32055  0.18809  1.0000
  H   H1551     1.0  0.55233  0.43137  0.02534  1.0000
  H   H1552     1.0  0.79774  0.30518  0.36617  1.0000
  C   C874      1.0  0.85290  0.26332  0.05722  1.0000
  C   C875      1.0  0.57224  0.37429  0.33417  1.0000
  H   H1553     1.0  0.70905  0.24161  0.29299  1.0000
  C   C876      1.0  0.53117  0.37911  0.28497  1.0000
  H   H1554     1.0  0.95258  0.45323  0.07992  1.0000
  C   C877      1.0  0.56014  0.36099  0.29741  1.0000
  H   H1555     1.0  0.85400  0.27143  0.08436  1.0000
  H   H1556     1.0  0.76710  0.47137  0.34746  1.0000
  H   H1557     1.0  0.59737  0.45579  0.25725  1.0000
  H   H1558     1.0  0.80843  0.34102  0.40876  1.0000
  H   H1559     1.0  0.78445  0.27369  0.32363  1.0000
  H   H1560     1.0  0.88157  0.34638  0.13593  1.0000
  H   H1561     1.0  0.76603  0.44079  0.39746  1.0000
  C   C878      1.0  0.54402  0.32735  0.45585  1.0000
  C   C879      1.0  0.90996  0.41456  0.04115  1.0000
  C   C880      1.0  0.74134  0.27526  0.32081  1.0000
  H   H1562     1.0  0.54615  0.33747  0.43035  1.0000
  H   H1563     1.0  0.54497  0.46810  0.00771  1.0000
  C   C881      1.0  0.72792  0.25825  0.28697  1.0000
  N   N49       1.0  0.92101  0.39794  0.05568  1.0000
  H   H1564     1.0  0.63780  0.44654  0.33557  1.0000
  S   S199      1.0  0.48572  0.45054  0.43374  1.0000
  C   C882      1.0  0.63331  0.46184  0.32950  1.0000
  H   H1565     1.0  0.66675  0.48231  0.29732  1.0000
  H   H1566     1.0  0.81733  0.31919  0.99828  1.0000
  H   H1567     1.0  0.90380  0.26818  0.18405  1.0000
  C   C883      1.0  0.53876  0.45932  0.03413  1.0000
  H   H1568     1.0  0.70307  0.44268  0.39086  1.0000
  H   H1569     1.0  0.87647  0.27272  0.17216  1.0000
  H   H1570     1.0  0.87875  0.40943  0.07604  1.0000
  C   C884      1.0  0.57611  0.35600  0.35920  1.0000
  C   C885      1.0  0.95520  0.44219  0.38044  1.0000
  H   H1571     1.0  0.72882  0.28310  0.33059  1.0000
  C   C886      1.0  0.53430  0.43168  0.03179  1.0000
  C   C887      1.0  0.58040  0.41717  0.23305  1.0000
  H   H1572     1.0  0.93514  0.37295  0.03471  1.0000
  H   H1573     1.0  0.93799  0.41231  0.10884  1.0000
  H   H1574     1.0  0.91386  0.46394  0.04960  1.0000
  N   N50       1.0  0.68728  0.45769  0.00090  1.0000
  C   C888      1.0  0.73729  0.47899  0.41013  1.0000
  C   C889      1.0  0.79257  0.48491  0.27443  1.0000
  H   H1575     1.0  0.48635  0.39861  0.25539  1.0000
  H   H1576     1.0  0.76916  0.43136  0.33405  1.0000
  C   C890      1.0  0.66297  0.43429  0.01188  1.0000
  C   C891      1.0  0.70790  0.46141  0.06477  1.0000
  H   H1577     1.0  0.70736  0.43519  0.00241  1.0000
  H   H1578     1.0  0.70477  0.24906  0.39639  1.0000
  H   H1579     1.0  0.69076  0.44457  0.07501  1.0000
  H   H1580     1.0  0.87164  0.24278  0.19144  1.0000
  H   H1581     1.0  0.62742  0.38119  0.00988  1.0000
  C   C892      1.0  0.62093  0.39367  0.99571  1.0000
  H   H1582     1.0  0.57760  0.47571  0.05564  1.0000
  C   C893      1.0  0.80972  0.48690  0.30302  1.0000
  Fe  Fe104     1.0  0.84911  0.47977  0.38788  1.0000
  H   H1583     1.0  0.66066  0.48325  0.12252  1.0000
  H   H1584     1.0  0.72804  0.43997  0.45596  1.0000
  H   H1585     1.0  0.86133  0.29982  0.03380  1.0000
  C   C894      1.0  0.55947  0.47528  0.06371  1.0000
  H   H1586     1.0  0.53881  0.25540  0.35078  1.0000
  C   C895      1.0  0.70006  0.47415  0.03412  1.0000
  H   H1587     1.0  0.93655  0.47160  0.99148  1.0000
  H   H1588     1.0  0.78621  0.45910  0.47171  1.0000
  H   H1589     1.0  0.54363  0.33962  0.47814  1.0000
  C   C896      1.0  0.64981  0.48213  0.30773  1.0000
  H   H1590     1.0  0.69823  0.47859  0.36396  1.0000
  H   H1591     1.0  0.84445  0.24318  0.12528  1.0000
  H   H1592     1.0  0.70744  0.48649  0.10747  1.0000
  H   H1593     1.0  0.97623  0.43600  0.42332  1.0000
  H   H1594     1.0  0.72655  0.47093  0.11790  1.0000
  C   C897      1.0  0.47850  0.27813  0.29552  1.0000
  H   H1595     1.0  0.47925  0.36713  0.27054  1.0000
  C   C898      1.0  0.65592  0.48738  0.09603  1.0000
  C   C899      1.0  0.70125  0.23839  0.37056  1.0000
  H   H1596     1.0  0.50423  0.24064  0.34179  1.0000
  C   C900      1.0  0.52159  0.23810  0.33934  1.0000
  H   H1597     1.0  0.94415  0.41940  0.99004  1.0000
  C   C901      1.0  0.54618  0.44613  0.54792  1.0000
  S   S200      1.0  0.55114  0.43433  0.93885  1.0000
  H   H1598     1.0  0.48108  0.35284  0.63689  1.0000
  H   H1599     1.0  0.54909  0.28450  0.75621  1.0000
  S   S201      1.0  0.60597  0.44316  0.90752  1.0000
  Fe  Fe105     1.0  0.56487  0.42796  0.88585  1.0000
  S   S202      1.0  0.55283  0.39245  0.84916  1.0000
  Fe  Fe106     1.0  0.59308  0.45346  0.95783  1.0000
  S   S203      1.0  0.57196  0.46630  0.86414  1.0000
  S   S204      1.0  0.74991  0.25611  0.76586  1.0000
  H   H1600     1.0  0.70863  0.45741  0.77970  1.0000
  H   H1601     1.0  0.51949  0.47772  0.49705  1.0000
  S   S205      1.0  0.88010  0.37768  0.94362  1.0000
  Fe  Fe107     1.0  0.84225  0.41036  0.90084  1.0000
  S   S206      1.0  0.87359  0.40662  0.87321  1.0000
  S   S207      1.0  0.81551  0.42269  0.87052  1.0000
  Fe  Fe108     1.0  0.85487  0.36614  0.89310  1.0000
  S   S208      1.0  0.85095  0.33264  0.85814  1.0000
  Fe  Fe109     1.0  0.89615  0.41873  0.92632  1.0000
  S   S209      1.0  0.94024  0.44487  0.92700  1.0000
  S   S210      1.0  0.82231  0.36888  0.91824  1.0000
  S   S211      1.0  0.86583  0.42497  0.95289  1.0000
  S   S212      1.0  0.52613  0.37293  0.51585  1.0000
  H   H1602     1.0  0.56317  0.45839  0.56585  1.0000
  C   C902      1.0  0.50965  0.33896  0.57109  1.0000
  C   C903      1.0  0.50226  0.34703  0.53958  1.0000
  H   H1603     1.0  0.83023  0.40154  0.64542  1.0000
  H   H1604     1.0  0.52965  0.34884  0.58065  1.0000
  Fe  Fe110     1.0  0.61265  0.48129  0.88722  1.0000
  C   C904      1.0  0.78352  0.37194  0.79920  1.0000
  H   H1605     1.0  0.89681  0.43189  0.56257  1.0000
  C   C905      1.0  0.81547  0.46255  0.57517  1.0000
  H   H1606     1.0  0.89838  0.46529  0.78622  1.0000
  H   H1607     1.0  0.89994  0.47208  0.58787  1.0000
  H   H1608     1.0  0.75820  0.44838  0.83724  1.0000
  H   H1609     1.0  0.86522  0.42623  0.54597  1.0000
  C   C906      1.0  0.66100  0.43856  0.87190  1.0000
  C   C907      1.0  0.82294  0.45047  0.84484  1.0000
  H   H1610     1.0  0.82683  0.34313  0.72082  1.0000
  C   C908      1.0  0.50406  0.48265  0.49508  1.0000
  H   H1611     1.0  0.96624  0.40409  0.95045  1.0000
  H   H1612     1.0  0.88632  0.46432  0.50703  1.0000
  C   C909      1.0  0.49761  0.26989  0.81213  1.0000
  H   H1613     1.0  0.48793  0.24978  0.80139  1.0000
  H   H1614     1.0  0.74780  0.45504  0.87742  1.0000
  H   H1615     1.0  0.80110  0.25944  0.77475  1.0000
  C   C910      1.0  0.77766  0.27549  0.79353  1.0000
  C   C911      1.0  0.77698  0.29394  0.81666  1.0000
  C   C912      1.0  0.79895  0.31089  0.83771  1.0000
  C   C913      1.0  0.82201  0.30982  0.83536  1.0000
  C   C914      1.0  0.82244  0.29076  0.81317  1.0000
  C   C915      1.0  0.80036  0.27361  0.79237  1.0000
  H   H1616     1.0  0.75939  0.29529  0.81803  1.0000
  H   H1617     1.0  0.79818  0.32506  0.85527  1.0000
  H   H1618     1.0  0.84016  0.28967  0.81139  1.0000
  H   H1619     1.0  0.95644  0.37532  0.97593  1.0000
  C   C916      1.0  0.50906  0.29882  0.86430  1.0000
  C   C917      1.0  0.75862  0.43586  0.50953  1.0000
  H   H1620     1.0  0.49751  0.31179  0.61409  1.0000
  H   H1621     1.0  0.73226  0.24121  0.83632  1.0000
  C   C918      1.0  0.52296  0.36888  0.82884  1.0000
  H   H1622     1.0  0.74928  0.41525  0.89901  1.0000
  H   H1623     1.0  0.86313  0.33594  0.77502  1.0000
  C   C919      1.0  0.49909  0.36368  0.84202  1.0000
  C   C920      1.0  0.80480  0.44940  0.81848  1.0000
  Fe  Fe111     1.0  0.84860  0.38295  0.96770  1.0000
  C   C921      1.0  0.96355  0.46735  0.95880  1.0000
  H   H1624     1.0  0.49934  0.40319  0.53549  1.0000
  H   H1625     1.0  0.49176  0.38509  0.65380  1.0000
  H   H1626     1.0  0.54173  0.35751  0.78963  1.0000
  C   C922      1.0  0.86808  0.42577  0.77760  1.0000
  C   C923      1.0  0.49145  0.31801  0.59021  1.0000
  H   H1627     1.0  0.85225  0.37021  0.79389  1.0000
  H   H1628     1.0  0.81386  0.36384  0.81951  1.0000
  S   S213      1.0  0.82860  0.44531  0.51493  1.0000
  H   H1629     1.0  0.77022  0.42667  0.51905  1.0000
  C   C924      1.0  0.49716  0.42013  0.54387  1.0000
  H   H1630     1.0  0.52100  0.45618  0.57527  1.0000
  H   H1631     1.0  0.50101  0.32209  0.76242  1.0000
  H   H1632     1.0  0.87195  0.42682  0.74883  1.0000
  H   H1633     1.0  0.75230  0.44856  0.98471  1.0000
  H   H1634     1.0  0.48790  0.27930  0.79701  1.0000
  C   C925      1.0  0.74741  0.45695  0.96111  1.0000
  C   C926      1.0  0.73923  0.40505  0.87358  1.0000
  C   C927      1.0  0.50579  0.30469  0.90369  1.0000
  Fe  Fe112     1.0  0.56066  0.47366  0.91891  1.0000
  H   H1635     1.0  0.66351  0.46728  0.75631  1.0000
  H   H1636     1.0  0.49827  0.43044  0.51869  1.0000
  H   H1637     1.0  0.87603  0.45312  0.82158  1.0000
  H   H1638     1.0  0.79448  0.34417  0.78261  1.0000
  H   H1639     1.0  0.76607  0.48718  0.81233  1.0000
  H   H1640     1.0  0.49844  0.37500  0.86434  1.0000
  C   C928      1.0  0.67274  0.48294  0.77584  1.0000
  H   H1641     1.0  0.80006  0.38926  0.73459  1.0000
  H   H1642     1.0  0.48652  0.45921  0.85384  1.0000
  H   H1643     1.0  0.87986  0.41812  0.79148  1.0000
  H   H1644     1.0  0.70556  0.47782  0.84445  1.0000
  H   H1645     1.0  0.70980  0.26358  0.80456  1.0000
  C   C929      1.0  0.67917  0.43780  0.84443  1.0000
  C   C930      1.0  0.81674  0.39031  0.66635  1.0000
  C   C931      1.0  0.84455  0.37077  0.76642  1.0000
  H   H1646     1.0  0.52436  0.34638  0.89849  1.0000
  C   C932      1.0  0.52338  0.35371  0.80000  1.0000
  C   C933      1.0  0.52605  0.33195  0.91560  1.0000
  H   H1647     1.0  0.54665  0.45734  0.52404  1.0000
  H   H1648     1.0  0.77043  0.36704  0.77503  1.0000
  H   H1649     1.0  0.73683  0.25143  0.97316  1.0000
  H   H1650     1.0  0.52303  0.33574  0.94364  1.0000
  C   C934      1.0  0.73072  0.46903  0.97180  1.0000
  H   H1651     1.0  0.67815  0.41866  0.84543  1.0000
  H   H1652     1.0  0.80765  0.36954  0.65860  1.0000
  H   H1653     1.0  0.85975  0.47499  0.87133  1.0000
  C   C935      1.0  0.52137  0.43824  0.56761  1.0000
  H   H1654     1.0  0.84675  0.38972  0.69950  1.0000
  H   H1655     1.0  0.52274  0.42863  0.59230  1.0000
  H   H1656     1.0  0.54774  0.42888  0.53957  1.0000
  H   H1657     1.0  0.79167  0.39277  0.80518  1.0000
  C   C936      1.0  0.83154  0.39543  0.70241  1.0000
  H   H1658     1.0  0.73714  0.44159  0.94030  1.0000
  C   C937      1.0  0.83903  0.40841  0.78461  1.0000
  H   H1659     1.0  0.82854  0.41908  0.77621  1.0000
  C   C938      1.0  0.87773  0.45319  0.79213  1.0000
  H   H1660     1.0  0.84068  0.41646  0.70811  1.0000
  C   C939      1.0  0.88588  0.43443  0.53961  1.0000
  H   H1661     1.0  0.50763  0.29099  0.92213  1.0000
  C   C940      1.0  0.50031  0.33355  0.78453  1.0000
  C   C941      1.0  0.69133  0.24600  0.80938  1.0000
  C   C942      1.0  0.82347  0.46797  0.53985  1.0000
  H   H1662     1.0  0.81807  0.32870  0.76374  1.0000
  H   H1663     1.0  0.86647  0.46193  0.77966  1.0000
  H   H1664     1.0  0.51642  0.27707  0.74386  1.0000
  H   H1665     1.0  0.83819  0.40782  0.81427  1.0000
  H   H1666     1.0  0.84685  0.31579  0.73620  1.0000
  H   H1667     1.0  0.52397  0.26705  0.88187  1.0000
  C   C943      1.0  0.76708  0.35739  0.83034  1.0000
  C   C944      1.0  0.52614  0.28302  0.80105  1.0000
  H   H1668     1.0  0.63832  0.47019  0.80633  1.0000
  H   H1669     1.0  0.80033  0.36042  0.72306  1.0000
  C   C945      1.0  0.81000  0.47952  0.59520  1.0000
  H   H1670     1.0  0.78723  0.43153  0.81321  1.0000
  H   H1671     1.0  0.93261  0.38085  0.95134  1.0000
  H   H1672     1.0  0.53011  0.30617  0.86131  1.0000
  H   H1673     1.0  0.53854  0.27924  0.82036  1.0000
  H   H1674     1.0  0.79523  0.47015  0.77843  1.0000
  H   H1675     1.0  0.71208  0.46190  0.88023  1.0000
  C   C946      1.0  0.83397  0.34357  0.74874  1.0000
  H   H1676     1.0  0.53373  0.30421  0.80020  1.0000
  H   H1677     1.0  0.66195  0.45779  0.87292  1.0000
  H   H1678     1.0  0.50379  0.31108  0.84731  1.0000
  H   H1679     1.0  0.87370  0.47204  0.56321  1.0000
  N   N51       1.0  0.72826  0.45935  0.83014  1.0000
  C   C947      1.0  0.95104  0.39015  0.96757  1.0000
  H   H1680     1.0  0.48659  0.30351  0.90662  1.0000
  H   H1681     1.0  0.74622  0.43460  0.78022  1.0000
  H   H1682     1.0  0.88718  0.42364  0.51609  1.0000
  H   H1683     1.0  0.67154  0.43954  0.81760  1.0000
  H   H1684     1.0  0.75783  0.33628  0.82514  1.0000
  H   H1685     1.0  0.54585  0.33436  0.91412  1.0000
  C   C948      1.0  0.97472  0.46843  0.50147  1.0000
  C   C949      1.0  0.71769  0.44700  0.79366  1.0000
  H   H1686     1.0  0.80345  0.47494  0.62212  1.0000
  H   H1687     1.0  0.76571  0.47192  0.95028  1.0000
  C   C950      1.0  0.80918  0.47129  0.79879  1.0000
  C   C951      1.0  0.74062  0.44587  0.85054  1.0000
  C   C952      1.0  0.73729  0.44575  0.76836  1.0000
  C   C953      1.0  0.70714  0.46023  0.85104  1.0000
  H   H1688     1.0  0.67587  0.25154  0.81105  1.0000
  H   H1689     1.0  0.86166  0.38353  0.75130  1.0000
  C   C954      1.0  0.72413  0.43283  0.73253  1.0000
  H   H1690     1.0  0.72634  0.38448  0.87926  1.0000
  H   H1691     1.0  0.70186  0.42699  0.79550  1.0000
  H   H1692     1.0  0.50116  0.45220  0.97361  1.0000
  H   H1693     1.0  0.77916  0.36238  0.85555  1.0000
  H   H1694     1.0  0.73786  0.42153  0.51077  1.0000
  H   H1695     1.0  0.76767  0.25859  0.95548  1.0000
  C   C955      1.0  0.80493  0.36437  0.79297  1.0000
  H   H1696     1.0  0.71399  0.40590  0.83189  1.0000
  C   C956      1.0  0.72335  0.41687  0.85703  1.0000
  H   H1697     1.0  0.67665  0.46372  0.94719  1.0000
  H   H1698     1.0  0.75263  0.46531  0.76248  1.0000
  C   C957      1.0  0.81315  0.38069  0.73239  1.0000
  H   H1699     1.0  0.70837  0.41424  0.87610  1.0000
  H   H1700     1.0  0.91734  0.46993  0.52355  1.0000
  C   C958      1.0  0.52870  0.27376  0.76402  1.0000
  H   H1701     1.0  0.75390  0.40607  0.85494  1.0000
  C   C959      1.0  0.84569  0.47374  0.85101  1.0000
  H   H1702     1.0  0.96997  0.45134  0.51664  1.0000
  H   H1703     1.0  0.71542  0.44379  0.71921  1.0000
  H   H1704     1.0  0.73864  0.43249  0.71474  1.0000
  H   H1705     1.0  0.70884  0.41271  0.73629  1.0000
  H   H1706     1.0  0.66604  0.43399  0.89871  1.0000
  C   C960      1.0  0.89719  0.46291  0.53095  1.0000
  H   H1707     1.0  0.49279  0.24934  0.89869  1.0000
  N   N52       1.0  0.82579  0.38134  0.76833  1.0000
  C   C961      1.0  0.89481  0.47866  0.56253  1.0000
  H   H1708     1.0  0.64080  0.42396  0.86435  1.0000
  H   H1709     1.0  0.75170  0.36284  0.83381  1.0000
  H   H1710     1.0  0.80153  0.39626  0.66747  1.0000
  H   H1711     1.0  0.49629  0.38353  0.58809  1.0000
  H   H1712     1.0  0.72794  0.47850  0.94780  1.0000
  H   H1713     1.0  0.74471  0.24758  0.89612  1.0000
  C   C962      1.0  0.85511  0.33567  0.74763  1.0000
  H   H1714     1.0  0.87095  0.34887  0.73074  1.0000
  H   H1715     1.0  0.76311  0.45255  0.52768  1.0000
  H   H1716     1.0  0.81302  0.44489  0.58688  1.0000
  H   H1717     1.0  0.66049  0.47057  0.98105  1.0000
  H   H1718     1.0  0.63608  0.42802  0.96552  1.0000
  H   H1719     1.0  0.69425  0.43617  0.95985  1.0000
  C   C963      1.0  0.65837  0.48450  0.80428  1.0000
  N   N53       1.0  0.49392  0.27094  0.85170  1.0000
  C   C964      1.0  0.50321  0.25519  0.87333  1.0000
  C   C965      1.0  0.49823  0.46863  0.97857  1.0000
  C   C966      1.0  0.74901  0.48677  0.82476  1.0000
  H   H1720     1.0  0.65337  0.41006  0.96242  1.0000
  H   H1721     1.0  0.48196  0.44932  0.58312  1.0000
  H   H1722     1.0  0.69932  0.24857  0.86584  1.0000
  H   H1723     1.0  0.49129  0.45053  0.89862  1.0000
  C   C967      1.0  0.74962  0.24320  0.96632  1.0000
  C   C968      1.0  0.67956  0.47237  0.97451  1.0000
  H   H1724     1.0  0.52289  0.25291  0.76411  1.0000
  H   H1725     1.0  0.48380  0.41599  0.61629  1.0000
  C   C969      1.0  0.95668  0.47741  0.98788  1.0000
  H   H1726     1.0  0.60725  0.38227  0.97332  1.0000
  C   C970      1.0  0.64394  0.41722  0.98106  1.0000
  C   C971      1.0  0.70418  0.44825  0.98409  1.0000
  H   H1727     1.0  0.87350  0.48763  0.61927  1.0000
  H   H1728     1.0  0.47956  0.27942  0.50391  1.0000
  S   S214      1.0  0.85713  0.70106  0.09679  1.0000
  Fe  Fe113     1.0  0.74266  0.52432  0.22175  1.0000
  S   S215      1.0  0.74206  0.55387  0.25917  1.0000
  H   H1729     1.0  0.54448  0.52353  0.36432  1.0000
  Fe  Fe114     1.0  0.71272  0.53581  0.16192  1.0000
  S   S216      1.0  0.71029  0.56566  0.19631  1.0000
  S   S217      1.0  0.69979  0.53513  0.10381  1.0000
  Fe  Fe115     1.0  0.75234  0.57965  0.21097  1.0000
  S   S218      1.0  0.78305  0.62283  0.21277  1.0000
  Fe  Fe116     1.0  0.70007  0.53678  0.24040  1.0000
  S   S219      1.0  0.66512  0.52909  0.27371  1.0000
  S   S220      1.0  0.75517  0.55089  0.17485  1.0000
  C   C972      1.0  0.66485  0.51662  0.04723  1.0000
  H   H1730     1.0  0.50709  0.68219  0.47931  1.0000
  C   C973      1.0  0.48927  0.51052  0.99084  1.0000
  Fe  Fe117     1.0  0.52228  0.70205  0.22700  1.0000
  S   S221      1.0  0.51659  0.66527  0.19794  1.0000
  Fe  Fe118     1.0  0.51134  0.72021  0.29815  1.0000
  C   C974      1.0  0.53298  0.55601  0.40532  1.0000
  S   S222      1.0  0.54346  0.71294  0.28109  1.0000
  H   H1731     1.0  0.50979  0.51124  0.36018  1.0000
  C   C975      1.0  0.49828  0.55763  0.44111  1.0000
  H   H1732     1.0  0.83339  0.58719  0.30628  1.0000
  H   H1733     1.0  0.50864  0.51708  0.42590  1.0000
  C   C976      1.0  0.58232  0.51414  0.10318  1.0000
  N   N54       1.0  0.84403  0.58720  0.23043  1.0000
  S   S223      1.0  0.87196  0.49035  0.44044  1.0000
  C   C977      1.0  0.73827  0.63535  0.14193  1.0000
  H   H1734     1.0  0.73456  0.57094  0.05135  1.0000
  H   H1735     1.0  0.85079  0.57877  0.17668  1.0000
  H   H1736     1.0  0.67827  0.64895  0.07057  1.0000
  H   H1737     1.0  0.94681  0.72517  0.31649  1.0000
  H   H1738     1.0  0.79346  0.68199  0.06667  1.0000
  H   H1739     1.0  0.90439  0.54566  0.46787  1.0000
  H   H1740     1.0  0.76491  0.68784  0.13022  1.0000
  H   H1741     1.0  0.74975  0.62553  0.14972  1.0000
  H   H1742     1.0  0.77424  0.63523  0.09636  1.0000
  H   H1743     1.0  0.50084  0.66377  0.34022  1.0000
  C   C978      1.0  0.80739  0.52385  0.32638  1.0000
  C   C979      1.0  0.78980  0.52149  0.29824  1.0000
  H   H1744     1.0  0.81305  0.53901  0.34648  1.0000
  H   H1745     1.0  0.78177  0.53450  0.29708  1.0000
  C   C980      1.0  0.83758  0.67977  0.13031  1.0000
  C   C981      1.0  0.83412  0.68855  0.16345  1.0000
  C   C982      1.0  0.81762  0.67089  0.18833  1.0000
  C   C983      1.0  0.80405  0.64418  0.18047  1.0000
  C   C984      1.0  0.80779  0.63537  0.14758  1.0000
  C   C985      1.0  0.82443  0.65300  0.12284  1.0000
  H   H1746     1.0  0.84387  0.70899  0.16972  1.0000
  H   H1747     1.0  0.81509  0.67805  0.21370  1.0000
  H   H1748     1.0  0.79777  0.61495  0.14108  1.0000
  H   H1749     1.0  0.82693  0.64586  0.09742  1.0000
  H   H1750     1.0  0.67658  0.53528  0.03593  1.0000
  H   H1751     1.0  0.87345  0.59758  0.29674  1.0000
  H   H1752     1.0  0.83910  0.55458  0.26203  1.0000
  C   C986      1.0  0.54380  0.63393  0.38734  1.0000
  H   H1753     1.0  0.53725  0.63875  0.36177  1.0000
  H   H1754     1.0  0.54266  0.52808  0.43059  1.0000
  C   C987      1.0  0.52927  0.60478  0.39230  1.0000
  C   C988      1.0  0.79161  0.50944  0.44894  1.0000
  H   H1755     1.0  0.73995  0.49400  0.43032  1.0000
  C   C989      1.0  0.67120  0.51154  0.08165  1.0000
  H   H1756     1.0  0.55384  0.56705  0.39938  1.0000
  C   C990      1.0  0.54053  0.56700  0.46892  1.0000
  C   C991      1.0  0.75608  0.63374  0.08436  1.0000
  H   H1757     1.0  0.73116  0.59449  0.10399  1.0000
  H   H1758     1.0  0.47981  0.69829  0.48189  1.0000
  H   H1759     1.0  0.48454  0.55797  0.38516  1.0000
  N   N55       1.0  0.56345  0.50208  0.07147  1.0000
  C   C992      1.0  0.69449  0.66841  0.07759  1.0000
  H   H1760     1.0  0.61803  0.51713  0.30820  1.0000
  C   C993      1.0  0.49070  0.66083  0.36469  1.0000
  H   H1761     1.0  0.51712  0.64025  0.26360  1.0000
  H   H1762     1.0  0.68650  0.67987  0.09053  1.0000
  H   H1763     1.0  0.63984  0.51849  0.14022  1.0000
  H   H1764     1.0  0.50755  0.61881  0.16094  1.0000
  H   H1765     1.0  0.47922  0.59851  0.24183  1.0000
  H   H1766     1.0  0.76091  0.64194  0.05729  1.0000
  C   C994      1.0  0.81484  0.54625  0.19142  1.0000
  H   H1767     1.0  0.93253  0.54164  0.46108  1.0000
  H   H1768     1.0  0.83249  0.52077  0.44526  1.0000
  H   H1769     1.0  0.61436  0.50819  0.08311  1.0000
  H   H1770     1.0  0.53266  0.59560  0.36869  1.0000
  C   C995      1.0  0.64405  0.49746  0.02670  1.0000
  H   H1771     1.0  0.89939  0.57723  0.31784  1.0000
  C   C996      1.0  0.49148  0.62211  0.15372  1.0000
  H   H1772     1.0  0.93715  0.70392  0.37448  1.0000
  C   C997      1.0  0.64455  0.50234  0.29996  1.0000
  C   C998      1.0  0.78310  0.69087  0.08028  1.0000
  H   H1773     1.0  0.91465  0.71671  0.32867  1.0000
  H   H1774     1.0  0.70846  0.63030  0.08292  1.0000
  H   H1775     1.0  0.76586  0.59230  0.07164  1.0000
  H   H1776     1.0  0.79671  0.54270  0.20358  1.0000
  H   H1777     1.0  0.51799  0.61229  0.28070  1.0000
  H   H1778     1.0  0.90752  0.71901  0.20507  1.0000
  H   H1779     1.0  0.81332  0.72875  0.06649  1.0000
  H   H1780     1.0  0.71790  0.61963  0.13880  1.0000
  C   C999      1.0  0.51126  0.52088  0.10091  1.0000
  H   H1781     1.0  0.76883  0.69170  0.06106  1.0000
  C   C1000     1.0  0.80313  0.71859  0.09056  1.0000
  H   H1782     1.0  0.50334  0.72881  0.43294  1.0000
  N   N56       1.0  0.74714  0.64898  0.10694  1.0000
  H   H1783     1.0  0.50855  0.63084  0.30901  1.0000
  H   H1784     1.0  0.76134  0.66333  0.18469  1.0000
  H   H1785     1.0  0.51210  0.53766  0.11558  1.0000
  C   C1001     1.0  0.60496  0.54156  0.99233  1.0000
  H   H1786     1.0  0.59096  0.53552  0.10290  1.0000
  H   H1787     1.0  0.47972  0.52722  0.39913  1.0000
  C   C1002     1.0  0.82156  0.58599  0.24998  1.0000
  C   C1003     1.0  0.82789  0.59857  0.28789  1.0000
  C   C1004     1.0  0.85656  0.63280  0.20690  1.0000
  H   H1788     1.0  0.82234  0.53458  0.20550  1.0000
  C   C1005     1.0  0.80446  0.59898  0.30328  1.0000
  S   S224      1.0  0.76065  0.49848  0.23546  1.0000
  C   C1006     1.0  0.47946  0.54500  0.40807  1.0000
  H   H1789     1.0  0.81144  0.59445  0.23379  1.0000
  H   H1790     1.0  0.80663  0.56566  0.25326  1.0000
  H   H1791     1.0  0.84360  0.61875  0.28788  1.0000
  H   H1792     1.0  0.92999  0.72804  0.39252  1.0000
  H   H1793     1.0  0.84935  0.62607  0.17907  1.0000
  H   H1794     1.0  0.84128  0.63423  0.22158  1.0000
  C   C1007     1.0  0.76999  0.67544  0.11374  1.0000
  H   H1795     1.0  0.78521  0.67371  0.13000  1.0000
  H   H1796     1.0  0.79732  0.60944  0.28557  1.0000
  H   H1797     1.0  0.78871  0.57906  0.30672  1.0000
  H   H1798     1.0  0.80987  0.60891  0.32990  1.0000
  H   H1799     1.0  0.88648  0.66857  0.23200  1.0000
  H   H1800     1.0  0.52657  0.65368  0.48557  1.0000
  C   C1008     1.0  0.53843  0.52394  0.09895  1.0000
  H   H1801     1.0  0.86278  0.56324  0.22950  1.0000
  H   H1802     1.0  0.70374  0.67814  0.05277  1.0000
  C   C1009     1.0  0.94165  0.72438  0.37293  1.0000
  H   H1803     1.0  0.52259  0.55578  0.37998  1.0000
  C   C1010     1.0  0.86499  0.61460  0.22597  1.0000
  C   C1011     1.0  0.49094  0.64395  0.16795  1.0000
  C   C1012     1.0  0.93546  0.72994  0.33505  1.0000
  H   H1804     1.0  0.54670  0.52689  0.12673  1.0000
  H   H1805     1.0  0.53993  0.64411  0.40940  1.0000
  C   C1013     1.0  0.53834  0.59762  0.42761  1.0000
  C   C1014     1.0  0.87733  0.58572  0.27753  1.0000
  H   H1806     1.0  0.60622  0.56044  0.99913  1.0000
  S   S225      1.0  0.48934  0.70723  0.24522  1.0000
  H   H1807     1.0  0.56492  0.64096  0.38655  1.0000
  H   H1808     1.0  0.56125  0.57334  0.46420  1.0000
  C   C1015     1.0  0.83426  0.57551  0.19337  1.0000
  H   H1809     1.0  0.88681  0.55428  0.28087  1.0000
  H   H1810     1.0  0.97036  0.50295  0.03444  1.0000
  C   C1016     1.0  0.88256  0.56664  0.29889  1.0000
  S   S226      1.0  0.83889  0.50999  0.36570  1.0000
  H   H1811     1.0  0.50850  0.59911  0.39310  1.0000
  C   C1017     1.0  0.78241  0.50209  0.27190  1.0000
  H   H1812     1.0  0.63456  0.54488  0.12717  1.0000
  C   C1018     1.0  0.74072  0.65225  0.17534  1.0000
  H   H1813     1.0  0.82181  0.53968  0.41887  1.0000
  C   C1019     1.0  0.81724  0.50641  0.32918  1.0000
  H   H1814     1.0  0.55984  0.60669  0.42801  1.0000
  H   H1815     1.0  0.70402  0.65739  0.12770  1.0000
  C   C1020     1.0  0.50745  0.62359  0.28128  1.0000
  H   H1816     1.0  0.53193  0.54651  0.47684  1.0000
  H   H1817     1.0  0.86558  0.55419  0.31460  1.0000
  C   C1021     1.0  0.52718  0.52794  0.41264  1.0000
  H   H1818     1.0  0.89531  0.59866  0.26396  1.0000
  C   C1022     1.0  0.57225  0.51875  0.03912  1.0000
  H   H1819     1.0  0.52286  0.49377  0.38480  1.0000
  H   H1820     1.0  0.73289  0.62233  0.21416  1.0000
  C   C1023     1.0  0.74890  0.59148  0.05659  1.0000
  H   H1821     1.0  0.71774  0.49209  0.02800  1.0000
  C   C1024     1.0  0.87919  0.66002  0.20481  1.0000
  H   H1822     1.0  0.72803  0.64842  0.22972  1.0000
  H   H1823     1.0  0.88094  0.61463  0.21082  1.0000
  H   H1824     1.0  0.69652  0.51178  0.99695  1.0000
  H   H1825     1.0  0.71904  0.60171  0.06331  1.0000
  H   H1826     1.0  0.79049  0.50112  0.47567  1.0000
  H   H1827     1.0  0.55012  0.54173  0.08424  1.0000
  C   C1025     1.0  0.59884  0.52480  0.02528  1.0000
  H   H1828     1.0  0.89510  0.65987  0.18999  1.0000
  H   H1829     1.0  0.77987  0.51950  0.44850  1.0000
  H   H1830     1.0  0.80008  0.54694  0.13736  1.0000
  H   H1831     1.0  0.73074  0.65659  0.05881  1.0000
  H   H1832     1.0  0.79331  0.51551  0.15231  1.0000
  H   H1833     1.0  0.73855  0.49764  0.08812  1.0000
  C   C1026     1.0  0.73680  0.60461  0.07833  1.0000
  H   H1834     1.0  0.53354  0.60768  0.44884  1.0000
  H   H1835     1.0  0.50284  0.52001  0.07363  1.0000
  H   H1836     1.0  0.82551  0.53800  0.13968  1.0000
  H   H1837     1.0  0.57340  0.53773  0.04462  1.0000
  C   C1027     1.0  0.72517  0.64999  0.08645  1.0000
  N   N57       1.0  0.52694  0.56929  0.43520  1.0000
  S   S227      1.0  0.70024  0.50616  0.20469  1.0000
  C   C1028     1.0  0.80812  0.53618  0.15272  1.0000
  H   H1838     1.0  0.63993  0.50143  0.99982  1.0000
  H   H1839     1.0  0.78582  0.49849  0.39315  1.0000
  C   C1029     1.0  0.53768  0.49979  0.08091  1.0000
  C   C1030     1.0  0.48356  0.67903  0.37594  1.0000
  H   H1840     1.0  0.87405  0.62411  0.25207  1.0000
  C   C1031     1.0  0.85485  0.57154  0.24921  1.0000
  C   C1032     1.0  0.81971  0.52977  0.44461  1.0000
  H   H1841     1.0  0.82409  0.58492  0.17956  1.0000
  H   H1842     1.0  0.57199  0.50811  0.12861  1.0000
  H   H1843     1.0  0.82607  0.54434  0.46677  1.0000
  H   H1844     1.0  0.87261  0.67231  0.19028  1.0000
  H   H1845     1.0  0.93631  0.57272  0.47381  1.0000
  H   H1846     1.0  0.73374  0.66625  0.16986  1.0000
  C   C1033     1.0  0.97595  0.49532  0.01208  1.0000
  H   H1847     1.0  0.49232  0.54238  0.46126  1.0000
  H   H1848     1.0  0.70469  0.62462  0.19857  1.0000
  C   C1034     1.0  0.52605  0.51336  0.37825  1.0000
  H   H1849     1.0  0.72956  0.68645  0.10968  1.0000
  C   C1035     1.0  0.62488  0.52466  0.13614  1.0000
  H   H1850     1.0  0.61436  0.53603  0.04571  1.0000
  H   H1851     1.0  0.81774  0.71893  0.11038  1.0000
  C   C1036     1.0  0.72559  0.63581  0.20621  1.0000
  C   C1037     1.0  0.71424  0.66652  0.10322  1.0000
  H   H1852     1.0  0.75503  0.60086  0.03049  1.0000
  H   H1853     1.0  0.79368  0.72917  0.10201  1.0000
  S   S228      1.0  0.49048  0.70706  0.35102  1.0000
  H   H1854     1.0  0.49381  0.57223  0.45326  1.0000
  H   H1855     1.0  0.55770  0.51017  0.01649  1.0000
  C   C1038     1.0  0.92454  0.55168  0.47751  1.0000
  H   H1856     1.0  0.49839  0.50308  0.11502  1.0000
  H   H1857     1.0  0.59932  0.50687  0.01789  1.0000
  C   C1039     1.0  0.60448  0.50705  0.10807  1.0000
  C   C1040     1.0  0.62234  0.50165  0.31392  1.0000
  S   S229      1.0  0.93796  0.49392  0.42992  1.0000
  H   H1858     1.0  0.48988  0.62475  0.37567  1.0000
  C   C1041     1.0  0.48472  0.63886  0.38514  1.0000
  C   C1042     1.0  0.96118  0.49143  0.45929  1.0000
  H   H1859     1.0  0.61602  0.52372  0.16215  1.0000
  H   H1860     1.0  0.96249  0.73677  0.38030  1.0000
  H   H1861     1.0  0.87965  0.72029  0.22180  1.0000
  H   H1862     1.0  0.92487  0.73101  0.26784  1.0000
  H   H1863     1.0  0.48616  0.52688  0.99553  1.0000
  C   C1043     1.0  0.89855  0.73152  0.20937  1.0000
  H   H1864     1.0  0.52473  0.49522  0.05649  1.0000
  C   C1044     1.0  0.78231  0.48833  0.41888  1.0000
  H   H1865     1.0  0.52806  0.73527  0.48952  1.0000
  C   C1045     1.0  0.47930  0.60658  0.26871  1.0000
  H   H1866     1.0  0.69643  0.49010  0.40815  1.0000
  H   H1867     1.0  0.74294  0.48936  0.38450  1.0000
  H   H1868     1.0  0.65598  0.54115  0.70182  1.0000
  H   H1869     1.0  0.77329  0.65476  0.69618  1.0000
  S   S230      1.0  0.82121  0.69357  0.58439  1.0000
  Fe  Fe119     1.0  0.75825  0.52068  0.72042  1.0000
  S   S231      1.0  0.78982  0.55008  0.75652  1.0000
  C   C1046     1.0  0.56930  0.68858  0.71837  1.0000
  Fe  Fe120     1.0  0.79663  0.52742  0.66139  1.0000
  S   S232      1.0  0.83025  0.55702  0.69505  1.0000
  C   C1047     1.0  0.82088  0.50767  0.54488  1.0000
  Fe  Fe121     1.0  0.81249  0.53014  0.74074  1.0000
  S   S233      1.0  0.48918  0.59841  0.53197  1.0000
  Fe  Fe122     1.0  0.80425  0.57393  0.70706  1.0000
  S   S234      1.0  0.81673  0.61725  0.70856  1.0000
  H   H1870     1.0  0.89002  0.50906  0.51213  1.0000
  S   S235      1.0  0.77125  0.54550  0.67193  1.0000
  H   H1871     1.0  0.86751  0.51365  0.83675  1.0000
  H   H1872     1.0  0.70493  0.53920  0.84525  1.0000
  H   H1873     1.0  0.72626  0.59880  0.62585  1.0000
  C   C1048     1.0  0.53964  0.58206  0.50236  1.0000
  H   H1874     1.0  0.71787  0.62054  0.66572  1.0000
  C   C1049     1.0  0.51057  0.70892  0.66799  1.0000
  C   C1050     1.0  0.51512  0.69183  0.64675  1.0000
  N   N58       1.0  0.89936  0.70099  0.60836  1.0000
  H   H1875     1.0  0.66939  0.50902  0.94272  1.0000
  H   H1876     1.0  0.53445  0.69759  0.63837  1.0000
  C   C1051     1.0  0.75861  0.64593  0.67391  1.0000
  H   H1877     1.0  0.52004  0.53057  0.95458  1.0000
  C   C1052     1.0  0.87988  0.65070  0.60853  1.0000
  H   H1878     1.0  0.58521  0.66254  0.72889  1.0000
  H   H1879     1.0  0.90717  0.53995  0.58491  1.0000
  N   N59       1.0  0.90970  0.50774  0.56092  1.0000
  H   H1880     1.0  0.95585  0.51502  0.52961  1.0000
  H   H1881     1.0  0.51937  0.57648  0.50791  1.0000
  H   H1882     1.0  0.63985  0.56016  0.69493  1.0000
  C   C1053     1.0  0.81989  0.67276  0.61962  1.0000
  C   C1054     1.0  0.82640  0.68127  0.65533  1.0000
  C   C1055     1.0  0.82546  0.66409  0.68203  1.0000
  C   C1056     1.0  0.81786  0.63812  0.67359  1.0000
  C   C1057     1.0  0.81132  0.62959  0.63791  1.0000
  C   C1058     1.0  0.81228  0.64678  0.61121  1.0000
  H   H1883     1.0  0.83204  0.70108  0.66241  1.0000
  H   H1884     1.0  0.83055  0.67096  0.70950  1.0000
  H   H1885     1.0  0.80561  0.60976  0.63086  1.0000
  H   H1886     1.0  0.80719  0.63990  0.58375  1.0000
  H   H1887     1.0  0.78789  0.54356  0.87462  1.0000
  C   C1059     1.0  0.91021  0.51621  0.52286  1.0000
  C   C1060     1.0  0.71035  0.52155  0.79787  1.0000
  C   C1061     1.0  0.69587  0.52333  0.82602  1.0000
  H   H1888     1.0  0.73037  0.53580  0.79581  1.0000
  H   H1889     1.0  0.97166  0.73010  0.56348  1.0000
  H   H1890     1.0  0.50817  0.70659  0.80442  1.0000
  C   C1062     1.0  0.93652  0.51801  0.57782  1.0000
  H   H1891     1.0  0.94615  0.51262  0.89171  1.0000
  H   H1892     1.0  0.96415  0.49500  0.89331  1.0000
  H   H1893     1.0  0.56504  0.69680  0.69420  1.0000
  H   H1894     1.0  0.57269  0.58276  0.53144  1.0000
  C   C1063     1.0  0.92822  0.71284  0.60538  1.0000
  S   S236      1.0  0.83783  0.52314  0.78225  1.0000
  H   H1895     1.0  0.77498  0.68234  0.64678  1.0000
  C   C1064     1.0  0.89240  0.71930  0.54840  1.0000
  H   H1896     1.0  0.91865  0.50747  0.50493  1.0000
  H   H1897     1.0  0.72679  0.63472  0.70905  1.0000
  C   C1065     1.0  0.87637  0.52280  0.63983  1.0000
  H   H1898     1.0  0.62380  0.54507  0.98216  1.0000
  C   C1066     1.0  0.88881  0.67653  0.62954  1.0000
  C   C1067     1.0  0.48372  0.50758  0.51745  1.0000
  H   H1899     1.0  0.58980  0.53188  0.97076  1.0000
  C   C1068     1.0  0.69768  0.50186  0.97239  1.0000
  H   H1900     1.0  0.86687  0.61024  0.61837  1.0000
  H   H1901     1.0  0.65518  0.56124  0.73787  1.0000
  S   S237      1.0  0.50176  0.64656  0.60962  1.0000
  H   H1902     1.0  0.68201  0.58038  0.66686  1.0000
  H   H1903     1.0  0.74174  0.49647  0.80570  1.0000
  H   H1904     1.0  0.87718  0.51483  0.56730  1.0000
  C   C1069     1.0  0.73246  0.62526  0.68792  1.0000
  H   H1905     1.0  0.74447  0.50566  0.87336  1.0000
  H   H1906     1.0  0.68103  0.60036  0.70226  1.0000
  C   C1070     1.0  0.51210  0.69493  0.53582  1.0000
  H   H1907     1.0  0.86012  0.62680  0.65344  1.0000
  H   H1908     1.0  0.55048  0.60316  0.49873  1.0000
  N   N60       1.0  0.49116  0.70261  0.53816  1.0000
  C   C1071     1.0  0.65671  0.55982  0.70854  1.0000
  H   H1909     1.0  0.93559  0.51087  0.60537  1.0000
  H   H1910     1.0  0.51453  0.68721  0.56185  1.0000
  N   N61       1.0  0.73208  0.60127  0.70228  1.0000
  C   C1072     1.0  0.70569  0.58299  0.71580  1.0000
  C   C1073     1.0  0.75133  0.60954  0.73374  1.0000
  C   C1074     1.0  0.74011  0.58783  0.67505  1.0000
  C   C1075     1.0  0.72555  0.58148  0.63810  1.0000
  C   C1076     1.0  0.75226  0.58746  0.75486  1.0000
  C   C1077     1.0  0.50800  0.67473  0.50612  1.0000
  C   C1078     1.0  0.73736  0.57057  0.61189  1.0000
  C   C1079     1.0  0.77076  0.59807  0.78767  1.0000
  H   H1911     1.0  0.70281  0.56292  0.71620  1.0000
  H   H1912     1.0  0.70426  0.58788  0.74417  1.0000
  H   H1913     1.0  0.74747  0.62161  0.75301  1.0000
  H   H1914     1.0  0.77131  0.62188  0.72504  1.0000
  H   H1915     1.0  0.76118  0.59919  0.67077  1.0000
  H   H1916     1.0  0.73748  0.56917  0.68537  1.0000
  H   H1917     1.0  0.70520  0.56655  0.64070  1.0000
  H   H1918     1.0  0.75914  0.57678  0.73782  1.0000
  H   H1919     1.0  0.73304  0.57363  0.76439  1.0000
  H   H1920     1.0  0.95625  0.50430  0.85105  1.0000
  H   H1921     1.0  0.86158  0.64551  0.59298  1.0000
  H   H1922     1.0  0.72715  0.56710  0.58532  1.0000
  H   H1923     1.0  0.89065  0.70660  0.68363  1.0000
  H   H1924     1.0  0.75812  0.58430  0.60872  1.0000
  H   H1925     1.0  0.77114  0.58197  0.80226  1.0000
  H   H1926     1.0  0.79067  0.61134  0.77954  1.0000
  H   H1927     1.0  0.76438  0.60851  0.80608  1.0000
  H   H1928     1.0  0.89418  0.65166  0.58950  1.0000
  H   H1929     1.0  0.90513  0.51071  0.63662  1.0000
  H   H1930     1.0  0.74221  0.66029  0.63246  1.0000
  C   C1080     1.0  0.50861  0.51259  0.96770  1.0000
  H   H1931     1.0  0.91332  0.72949  0.54324  1.0000
  H   H1932     1.0  0.94596  0.55350  0.52570  1.0000
  C   C1081     1.0  0.89553  0.51865  0.58198  1.0000
  H   H1933     1.0  0.91701  0.55601  0.53179  1.0000
  H   H1934     1.0  0.87013  0.51439  0.66646  1.0000
  H   H1935     1.0  0.88268  0.69789  0.49749  1.0000
  H   H1936     1.0  0.92871  0.69110  0.55736  1.0000
  C   C1082     1.0  0.92535  0.54564  0.51701  1.0000
  C   C1083     1.0  0.75590  0.66774  0.65608  1.0000
  C   C1084     1.0  0.48587  0.70149  0.67993  1.0000
  S   S238      1.0  0.65221  0.50878  0.86477  1.0000
  C   C1085     1.0  0.58106  0.67196  0.70587  1.0000
  C   C1086     1.0  0.66973  0.50492  0.82937  1.0000
  H   H1937     1.0  0.70228  0.53420  0.94042  1.0000
  C   C1087     1.0  0.88547  0.69565  0.57215  1.0000
  C   C1088     1.0  0.68173  0.58228  0.69617  1.0000
  H   H1938     1.0  0.55042  0.58703  0.55894  1.0000
  H   H1939     1.0  0.77069  0.54056  0.83269  1.0000
  H   H1940     1.0  0.86427  0.68611  0.57559  1.0000
  H   H1941     1.0  0.88848  0.68160  0.55610  1.0000
  H   H1942     1.0  0.69163  0.50459  0.91514  1.0000
  S   S239      1.0  0.60223  0.49257  0.93945  1.0000
  C   C1089     1.0  0.77982  0.53160  0.84976  1.0000
  C   C1090     1.0  0.87462  0.62870  0.63387  1.0000
  H   H1943     1.0  0.52608  0.72785  0.67529  1.0000
  H   H1944     1.0  0.51783  0.50831  0.54148  1.0000
  H   H1945     1.0  0.76597  0.63752  0.65383  1.0000
  H   H1946     1.0  0.53173  0.66035  0.53306  1.0000
  H   H1947     1.0  0.73531  0.55194  0.62127  1.0000
  H   H1948     1.0  0.93790  0.71644  0.63236  1.0000
  H   H1949     1.0  0.59920  0.68383  0.69195  1.0000
  H   H1950     1.0  0.79600  0.53146  0.83555  1.0000
  C   C1091     1.0  0.49482  0.66746  0.63599  1.0000
  C   C1092     1.0  0.55197  0.57647  0.53534  1.0000
  H   H1951     1.0  0.87319  0.71463  0.62534  1.0000
  H   H1952     1.0  0.58904  0.69911  0.76957  1.0000
  H   H1953     1.0  0.60755  0.71904  0.73540  1.0000
  H   H1954     1.0  0.89269  0.63212  0.64860  1.0000
  C   C1093     1.0  0.68971  0.51301  0.94072  1.0000
  S   S240      1.0  0.78034  0.49950  0.70626  1.0000
  C   C1094     1.0  0.50315  0.50017  0.52014  1.0000
  H   H1955     1.0  0.56722  0.65671  0.68684  1.0000
  H   H1956     1.0  0.74907  0.67732  0.67526  1.0000
  H   H1957     1.0  0.93500  0.67977  0.59950  1.0000
  H   H1958     1.0  0.50770  0.67638  0.79374  1.0000
  C   C1095     1.0  0.88811  0.50836  0.62026  1.0000
  H   H1959     1.0  0.90301  0.67826  0.65122  1.0000
  H   H1960     1.0  0.55100  0.67552  0.73099  1.0000
  S   S241      1.0  0.80422  0.52344  0.60272  1.0000
  H   H1961     1.0  0.55558  0.70201  0.79460  1.0000
  C   C1096     1.0  0.83169  0.49468  0.80542  1.0000
  H   H1962     1.0  0.49035  0.71110  0.59442  1.0000
  C   C1097     1.0  0.69876  0.50150  0.77224  1.0000
  H   H1963     1.0  0.85921  0.52128  0.62452  1.0000
  C   C1098     1.0  0.81235  0.50204  0.57994  1.0000
  H   H1964     1.0  0.49010  0.65633  0.50960  1.0000
  C   C1099     1.0  0.87751  0.71099  0.51231  1.0000
  H   H1965     1.0  0.82287  0.52509  0.53292  1.0000
  C   C1100     1.0  0.96189  0.51039  0.87952  1.0000
  C   C1101     1.0  0.93819  0.69703  0.58435  1.0000
  H   H1966     1.0  0.89074  0.54347  0.64380  1.0000
  H   H1967     1.0  0.94591  0.53934  0.58125  1.0000
  S   S242      1.0  0.47967  0.72143  0.70944  1.0000
  H   H1968     1.0  0.87119  0.67359  0.64329  1.0000
  C   C1102     1.0  0.50724  0.69346  0.78238  1.0000
  C   C1103     1.0  0.52959  0.70752  0.75767  1.0000
  H   H1969     1.0  0.48863  0.68686  0.76695  1.0000
  H   H1970     1.0  0.53118  0.71177  0.53165  1.0000
  S   S243      1.0  0.71577  0.49849  0.73549  1.0000
  C   C1104     1.0  0.95522  0.51103  0.55852  1.0000
  H   H1971     1.0  0.54186  0.55561  0.54098  1.0000
  H   H1972     1.0  0.85635  0.70108  0.51614  1.0000
  C   C1105     1.0  0.58774  0.70964  0.74577  1.0000
  C   C1106     1.0  0.96725  0.71277  0.57940  1.0000
  H   H1973     1.0  0.83287  0.49530  0.49798  1.0000
  C   C1107     1.0  0.75990  0.50426  0.85901  1.0000
  C   C1108     1.0  0.53024  0.66836  0.50684  1.0000
  H   H1974     1.0  0.52721  0.69415  0.73538  1.0000
  C   C1109     1.0  0.89409  0.72028  0.62810  1.0000
  C   C1110     1.0  0.84999  0.49567  0.83143  1.0000
  C   C1111     1.0  0.49721  0.72157  0.56905  1.0000
  H   H1975     1.0  0.94939  0.49039  0.56215  1.0000
  S   S244      1.0  0.53793  0.49553  0.93137  1.0000
  H   H1976     1.0  0.71814  0.50692  0.96981  1.0000
  C   C1112     1.0  0.55615  0.71791  0.77824  1.0000
  S   S245      1.0  0.48417  0.53076  0.54880  1.0000
  H   H1977     1.0  0.61700  0.72754  0.80959  1.0000
  H   H1978     1.0  0.76975  0.49688  0.87756  1.0000
  C   C1113     1.0  0.90180  0.72448  0.66871  1.0000
  H   H1979     1.0  0.93610  0.73224  0.59350  1.0000
  C   C1114     1.0  0.51345  0.49177  0.96153  1.0000
  H   H1980     1.0  0.54878  0.68583  0.50197  1.0000
  C   C1115     1.0  0.82658  0.49084  0.52501  1.0000
  C   C1116     1.0  0.48704  0.71333  0.50356  1.0000
  H   H1981     1.0  0.92265  0.73088  0.67353  1.0000
  H   H1982     1.0  0.88712  0.73304  0.56107  1.0000
  H   H1983     1.0  0.59106  0.72940  0.83105  1.0000
  H   H1984     1.0  0.88236  0.72818  0.49600  1.0000
  H   H1985     1.0  0.97797  0.71891  0.60570  1.0000
  H   H1986     1.0  0.48635  0.73251  0.56509  1.0000
  H   H1987     1.0  0.52753  0.72377  0.74633  1.0000
  H   H1988     1.0  0.53588  0.73106  0.59052  1.0000
  H   H1989     1.0  0.97408  0.70088  0.56489  1.0000
  H   H1990     1.0  0.55970  0.72953  0.70746  1.0000
  N   N62       1.0  0.58020  0.72969  0.75651  1.0000
  Fe  Fe123     1.0  0.83639  0.73733  0.58080  1.0000
  H   H1991     1.0  0.55656  0.73240  0.79788  1.0000
  C   C1117     1.0  0.51057  0.73765  0.49018  1.0000
  C   C1118     1.0  0.94108  0.75831  0.33229  1.0000
  S   S246      1.0  0.87719  0.77643  0.11421  1.0000
  Fe  Fe124     1.0  0.93549  0.78521  0.05788  1.0000
  S   S247      1.0  0.93157  0.81844  0.07961  1.0000
  H   H1992     1.0  0.62356  0.74779  0.39425  1.0000
  Fe  Fe125     1.0  0.91973  0.79623  0.13012  1.0000
  S   S248      1.0  0.93204  0.81468  0.18575  1.0000
  Fe  Fe126     1.0  0.88956  0.79590  0.06135  1.0000
  S   S249      1.0  0.87670  0.82189  0.03153  1.0000
  S   S250      1.0  0.92634  0.76407  0.11016  1.0000
  S   S251      1.0  0.89397  0.76332  0.03712  1.0000
  H   H1993     1.0  0.95698  0.84337  0.25004  1.0000
  Fe  Fe127     1.0  0.78669  0.94999  0.39386  1.0000
  S   S252      1.0  0.81782  0.94306  0.37191  1.0000
  C   C1119     1.0  0.49347  0.97740  0.44367  1.0000
  Fe  Fe128     1.0  0.74314  0.89602  0.36617  1.0000
  S   S253      1.0  0.77224  0.88598  0.34365  1.0000
  S   S254      1.0  0.69865  0.87054  0.36511  1.0000
  Fe  Fe129     1.0  0.79599  0.90332  0.39498  1.0000
  S   S255      1.0  0.81972  0.89120  0.43269  1.0000
  Fe  Fe130     1.0  0.79136  0.92676  0.32296  1.0000
  S   S256      1.0  0.80100  0.93384  0.26388  1.0000
  S   S257      1.0  0.76587  0.91122  0.41890  1.0000
  S   S258      1.0  0.76125  0.93580  0.34342  1.0000
  Fe  Fe131     1.0  0.88425  0.74499  0.09169  1.0000
  S   S259      1.0  0.53157  0.76226  0.28278  1.0000
  S   S260      1.0  0.60767  0.77893  0.26944  1.0000
  H   H1994     1.0  0.70173  0.79338  0.48080  1.0000
  H   H1995     1.0  0.75012  0.84789  0.99339  1.0000
  H   H1996     1.0  0.87430  0.89575  0.41133  1.0000
  C   C1120     1.0  0.67366  0.84520  0.33796  1.0000
  C   C1121     1.0  0.67895  0.83193  0.31131  1.0000
  C   C1122     1.0  0.65858  0.81190  0.29073  1.0000
  C   C1123     1.0  0.63248  0.80455  0.29655  1.0000
  C   C1124     1.0  0.62718  0.81768  0.32349  1.0000
  C   C1125     1.0  0.64761  0.83781  0.34396  1.0000
  H   H1997     1.0  0.69871  0.83681  0.30694  1.0000
  H   H1998     1.0  0.66303  0.80183  0.27026  1.0000
  H   H1999     1.0  0.60733  0.81237  0.32849  1.0000
  H   H2000     1.0  0.64312  0.84775  0.36458  1.0000
  H   H2001     1.0  0.73220  0.85851  0.44205  1.0000
  C   C1126     1.0  0.81631  0.96380  0.24169  1.0000
  C   C1127     1.0  0.81717  0.96374  0.20415  1.0000
  C   C1128     1.0  0.96689  0.78048  0.28016  1.0000
  H   H2002     1.0  0.80833  0.94557  0.18939  1.0000
  C   C1129     1.0  0.51129  0.83023  0.03017  1.0000
  C   C1130     1.0  0.49329  0.83166  0.13354  1.0000
  C   C1131     1.0  0.51198  0.81223  0.17486  1.0000
  C   C1132     1.0  0.51336  0.83389  0.15724  1.0000
  C   C1133     1.0  0.54520  0.87714  0.04115  1.0000
  H   H2003     1.0  0.52747  0.81436  0.19325  1.0000
  H   H2004     1.0  0.53007  0.85258  0.16223  1.0000
  S   S261      1.0  0.97009  0.79055  0.02546  1.0000
  C   C1134     1.0  0.84979  0.81459  0.00187  1.0000
  C   C1135     1.0  0.81458  0.86122  0.44997  1.0000
  C   C1136     1.0  0.79627  0.83758  0.43459  1.0000
  C   C1137     1.0  0.93660  0.82923  0.32936  1.0000
  C   C1138     1.0  0.94838  0.81128  0.32603  1.0000
  H   H2005     1.0  0.78459  0.83724  0.41150  1.0000
  H   H2006     1.0  0.84340  0.86965  0.02153  1.0000
  H   H2007     1.0  0.95011  0.84668  0.34529  1.0000
  C   C1139     1.0  0.52144  0.76215  0.09696  1.0000
  C   C1140     1.0  0.83012  0.86126  0.47945  1.0000
  C   C1141     1.0  0.71683  0.81758  0.39609  1.0000
  C   C1142     1.0  0.71347  0.79910  0.45652  1.0000
  H   H2008     1.0  0.92842  0.90657  0.43903  1.0000
  H   H2009     1.0  0.90995  0.77179  0.47766  1.0000
  C   C1143     1.0  0.79367  0.81435  0.44846  1.0000
  C   C1144     1.0  0.89576  0.90591  0.41114  1.0000
  H   H2010     1.0  0.94737  0.88578  0.46193  1.0000
  C   C1145     1.0  0.96385  0.82619  0.20374  1.0000
  H   H2011     1.0  0.97504  0.84111  0.00768  1.0000
  H   H2012     1.0  0.77062  0.94028  0.99383  1.0000
  C   C1146     1.0  0.71538  0.79900  0.36551  1.0000
  C   C1147     1.0  0.50527  0.74398  0.45231  1.0000
  H   H2013     1.0  0.93498  0.76903  0.42723  1.0000
  H   H2014     1.0  0.53626  0.80584  0.06271  1.0000
  H   H2015     1.0  0.94942  0.80431  0.35314  1.0000
  H   H2016     1.0  0.86833  0.91701  0.07287  1.0000
  C   C1148     1.0  0.82825  0.93025  0.05368  1.0000
  C   C1149     1.0  0.53793  0.84914  0.04834  1.0000
  C   C1150     1.0  0.76079  0.83900  0.00710  1.0000
  Fe  Fe132     1.0  0.56295  0.75423  0.26298  1.0000
  C   C1151     1.0  0.88151  0.88896  0.07007  1.0000
  H   H2017     1.0  0.82468  0.77746  0.02286  1.0000
  C   C1152     1.0  0.51488  0.79498  0.06098  1.0000
  H   H2018     1.0  0.73738  0.82894  0.40584  1.0000
  C   C1153     1.0  0.67450  0.78211  0.41661  1.0000
  H   H2019     1.0  0.90750  0.76774  0.23367  1.0000
  Fe  Fe133     1.0  0.51197  0.74845  0.22782  1.0000
  C   C1154     1.0  0.72064  0.77777  0.44779  1.0000
  H   H2020     1.0  0.79534  0.88282  0.03784  1.0000
  H   H2021     1.0  0.82986  0.87732  0.05790  1.0000
  H   H2022     1.0  0.48629  0.75441  0.06883  1.0000
  S   S262      1.0  0.48659  0.76013  0.19226  1.0000
  H   H2023     1.0  0.51220  0.75860  0.04063  1.0000
  C   C1155     1.0  0.73670  0.81290  0.33922  1.0000
  H   H2024     1.0  0.82978  0.91846  0.07560  1.0000
  H   H2025     1.0  0.52166  0.76251  0.44440  1.0000
  H   H2026     1.0  0.86339  0.96465  0.07226  1.0000
  H   H2027     1.0  0.80756  0.92505  0.04936  1.0000
  S   S263      1.0  0.49590  0.85985  0.11282  1.0000
  H   H2028     1.0  0.67822  0.81657  0.46345  1.0000
  C   C1156     1.0  0.69294  0.82545  0.44282  1.0000
  H   H2029     1.0  0.48738  0.74581  0.45071  1.0000
  H   H2030     1.0  0.66386  0.77264  0.44086  1.0000
  H   H2031     1.0  0.86869  0.87628  0.09066  1.0000
  H   H2032     1.0  0.88457  0.87689  0.04995  1.0000
  H   H2033     1.0  0.72269  0.84545  0.48570  1.0000
  H   H2034     1.0  0.71956  0.95064  0.23071  1.0000
  H   H2035     1.0  0.90050  0.90234  0.08322  1.0000
  C   C1157     1.0  0.97069  0.83925  0.23706  1.0000
  H   H2036     1.0  0.50870  0.80091  0.08552  1.0000
  C   C1158     1.0  0.49032  0.78799  0.16926  1.0000
  N   N63       1.0  0.90835  0.85353  0.45783  1.0000
  H   H2037     1.0  0.78001  0.79620  0.43578  1.0000
  H   H2038     1.0  0.73498  0.79932  0.31737  1.0000
  C   C1159     1.0  0.89726  0.86625  0.43325  1.0000
  C   C1160     1.0  0.90710  0.89536  0.43970  1.0000
  C   C1161     1.0  0.84275  0.95861  0.06570  1.0000
  H   H2039     1.0  0.48266  0.91156  0.20036  1.0000
  H   H2040     1.0  0.90183  0.90367  0.38419  1.0000
  N   N64       1.0  0.69960  0.80580  0.42723  1.0000
  H   H2041     1.0  0.75823  0.83898  0.03633  1.0000
  H   H2042     1.0  0.66928  0.90117  0.32894  1.0000
  H   H2043     1.0  0.53060  0.88186  0.05178  1.0000
  H   H2044     1.0  0.50449  0.77422  0.99053  1.0000
  H   H2045     1.0  0.88343  0.91689  0.03249  1.0000
  H   H2046     1.0  0.96014  0.77075  0.34614  1.0000
  N   N65       1.0  0.83082  0.89774  0.00941  1.0000
  H   H2047     1.0  0.90268  0.92671  0.41666  1.0000
  H   H2048     1.0  0.73849  0.75709  0.47378  1.0000
  C   C1162     1.0  0.92045  0.74710  0.27102  1.0000
  S   S264      1.0  0.54424  0.74250  0.20704  1.0000
  H   H2049     1.0  0.84143  0.97099  0.04441  1.0000
  C   C1163     1.0  0.97027  0.80313  0.44334  1.0000
  C   C1164     1.0  0.75777  0.96752  0.21108  1.0000
  H   H2050     1.0  0.90633  0.81616  0.46067  1.0000
  H   H2051     1.0  0.75606  0.82040  0.35287  1.0000
  N   N66       1.0  0.70730  0.89775  0.23913  1.0000
  C   C1165     1.0  0.68533  0.89467  0.21403  1.0000
  C   C1166     1.0  0.73240  0.92088  0.22948  1.0000
  C   C1167     1.0  0.71029  0.87390  0.23446  1.0000
  C   C1168     1.0  0.70163  0.89968  0.27765  1.0000
  C   C1169     1.0  0.69652  0.92217  0.28789  1.0000
  C   C1170     1.0  0.65841  0.87139  0.22057  1.0000
  C   C1171     1.0  0.73413  0.87434  0.25414  1.0000
  C   C1172     1.0  0.73086  0.94448  0.21414  1.0000
  H   H2052     1.0  0.92659  0.75963  0.34930  1.0000
  C   C1173     1.0  0.68723  0.91970  0.32597  1.0000
  C   C1174     1.0  0.63776  0.87103  0.19440  1.0000
  C   C1175     1.0  0.73582  0.84989  0.24561  1.0000
  H   H2053     1.0  0.69010  0.89296  0.18594  1.0000
  H   H2054     1.0  0.68270  0.91201  0.21479  1.0000
  H   H2055     1.0  0.74636  0.92767  0.25302  1.0000
  H   H2056     1.0  0.74206  0.91544  0.20857  1.0000
  H   H2057     1.0  0.71132  0.87006  0.20553  1.0000
  H   H2058     1.0  0.69319  0.85666  0.24410  1.0000
  H   H2059     1.0  0.68503  0.88140  0.28576  1.0000
  H   H2060     1.0  0.71797  0.90191  0.29556  1.0000
  H   H2061     1.0  0.68152  0.92282  0.26999  1.0000
  H   H2062     1.0  0.71471  0.94069  0.28711  1.0000
  H   H2063     1.0  0.65847  0.85281  0.21673  1.0000
  H   H2064     1.0  0.65223  0.87230  0.24793  1.0000
  H   H2065     1.0  0.73304  0.87568  0.28347  1.0000
  H   H2066     1.0  0.75237  0.89078  0.24602  1.0000
  H   H2067     1.0  0.72157  0.93966  0.18683  1.0000
  H   H2068     1.0  0.70372  0.75971  0.43781  1.0000
  H   H2069     1.0  0.82997  0.98656  0.15666  1.0000
  H   H2070     1.0  0.96709  0.79044  0.25507  1.0000
  H   H2071     1.0  0.93324  0.83547  0.30271  1.0000
  H   H2072     1.0  0.97701  0.81186  0.16063  1.0000
  C   C1176     1.0  0.82644  0.79175  0.00367  1.0000
  H   H2073     1.0  0.94133  0.84076  0.41374  1.0000
  H   H2074     1.0  0.64259  0.86950  0.16640  1.0000
  H   H2075     1.0  0.61881  0.85410  0.19948  1.0000
  H   H2076     1.0  0.63590  0.88873  0.19793  1.0000
  H   H2077     1.0  0.75255  0.85043  0.26094  1.0000
  H   H2078     1.0  0.71801  0.83245  0.25303  1.0000
  H   H2079     1.0  0.73872  0.84861  0.21668  1.0000
  H   H2080     1.0  0.96838  0.82295  0.31731  1.0000
  C   C1177     1.0  0.80880  0.81438  0.47835  1.0000
  C   C1178     1.0  0.85700  0.78114  0.43889  1.0000
  C   C1179     1.0  0.65560  0.78691  0.39195  1.0000
  H   H2081     1.0  0.83404  0.96156  0.08992  1.0000
  H   H2082     1.0  0.79916  0.84380  0.01296  1.0000
  C   C1180     1.0  0.80171  0.88243  0.01035  1.0000
  H   H2083     1.0  0.73567  0.78465  0.42765  1.0000
  C   C1181     1.0  0.70786  0.87044  0.46891  1.0000
  H   H2084     1.0  0.70233  0.92076  0.34550  1.0000
  H   H2085     1.0  0.93302  0.79794  0.27270  1.0000
  H   H2086     1.0  0.51697  0.76920  0.12191  1.0000
  H   H2087     1.0  0.73218  0.81621  0.46463  1.0000
  C   C1182     1.0  0.71585  0.85003  0.46015  1.0000
  C   C1183     1.0  0.91652  0.75503  0.23275  1.0000
  C   C1184     1.0  0.94703  0.86136  0.41884  1.0000
  C   C1185     1.0  0.63474  0.76201  0.37395  1.0000
  H   H2088     1.0  0.49701  0.83310  0.04566  1.0000
  H   H2089     1.0  0.56415  0.89014  0.05472  1.0000
  H   H2090     1.0  0.75243  0.81871  0.99721  1.0000
  H   H2091     1.0  0.85863  0.78089  0.40946  1.0000
  H   H2092     1.0  0.89837  0.82341  0.41747  1.0000
  N   N67       1.0  0.50406  0.80196  0.02824  1.0000
  S   S265      1.0  0.48203  0.95248  0.02678  1.0000
  H   H2093     1.0  0.62120  0.76620  0.35749  1.0000
  H   H2094     1.0  0.90004  0.86299  0.40484  1.0000
  H   H2095     1.0  0.91163  0.77991  0.30636  1.0000
  C   C1186     1.0  0.50728  0.76613  0.06464  1.0000
  H   H2096     1.0  0.71248  0.83194  0.38285  1.0000
  C   C1187     1.0  0.84253  0.88608  0.03500  1.0000
  H   H2097     1.0  0.68392  0.83220  0.42178  1.0000
  H   H2098     1.0  0.67797  0.76734  0.40324  1.0000
  C   C1188     1.0  0.93220  0.78880  0.29881  1.0000
  C   C1189     1.0  0.89615  0.82543  0.44653  1.0000
  H   H2099     1.0  0.85506  0.81624  0.43954  1.0000
  H   H2100     1.0  0.64351  0.75361  0.35598  1.0000
  C   C1190     1.0  0.94418  0.78464  0.44678  1.0000
  H   H2101     1.0  0.64576  0.79536  0.40774  1.0000
  H   H2102     1.0  0.55374  0.84585  0.03920  1.0000
  H   H2103     1.0  0.68315  0.93573  0.33232  1.0000
  H   H2104     1.0  0.83634  0.76930  0.44504  1.0000
  C   C1191     1.0  0.51265  0.79543  0.99399  1.0000
  H   H2105     1.0  0.93927  0.86830  0.39662  1.0000
  C   C1192     1.0  0.83869  0.92551  0.01854  1.0000
  C   C1193     1.0  0.86691  0.80867  0.45315  1.0000
  H   H2106     1.0  0.94466  0.85605  0.47560  1.0000
  N   N68       1.0  0.94039  0.76830  0.29534  1.0000
  H   H2107     1.0  0.53712  0.84673  0.07777  1.0000
  H   H2108     1.0  0.49616  0.96978  0.41880  1.0000
  H   H2109     1.0  0.76918  0.96280  0.19238  1.0000
  H   H2110     1.0  0.82864  0.97799  0.46652  1.0000
  H   H2111     1.0  0.85996  0.93762  0.01975  1.0000
  H   H2112     1.0  0.90061  0.89865  0.46574  1.0000
  C   C1194     1.0  0.86972  0.90431  0.05211  1.0000
  H   H2113     1.0  0.55241  0.80478  0.01162  1.0000
  H   H2114     1.0  0.69667  0.79133  0.35009  1.0000
  H   H2115     1.0  0.71713  0.78235  0.37555  1.0000
  C   C1195     1.0  0.92994  0.78607  0.47547  1.0000
  H   H2116     1.0  0.86812  0.77236  0.45162  1.0000
  C   C1196     1.0  0.48047  0.97508  0.99631  1.0000
  H   H2117     1.0  0.93500  0.76517  0.21909  1.0000
  H   H2118     1.0  0.54265  0.77246  0.09381  1.0000
  H   H2119     1.0  0.73498  0.82914  0.32718  1.0000
  H   H2120     1.0  0.66604  0.80051  0.37084  1.0000
  H   H2121     1.0  0.79254  0.89135  0.99300  1.0000
  C   C1197     1.0  0.93724  0.86487  0.45523  1.0000
  H   H2122     1.0  0.91799  0.81944  0.34293  1.0000
  H   H2123     1.0  0.96498  0.74490  0.25748  1.0000
  H   H2124     1.0  0.51514  0.74130  0.09968  1.0000
  H   H2125     1.0  0.87599  0.85723  0.43553  1.0000
  H   H2126     1.0  0.83193  0.93390  0.99678  1.0000
  S   S266      1.0  0.48566  0.88685  0.01954  1.0000
  H   H2127     1.0  0.47997  0.88965  0.16485  1.0000
  C   C1198     1.0  0.78941  0.85349  0.99899  1.0000
  H   H2128     1.0  0.90130  0.73846  0.28347  1.0000
  C   C1199     1.0  0.73192  0.77119  0.48106  1.0000
  H   H2129     1.0  0.89508  0.73791  0.18285  1.0000
  H   H2130     1.0  0.70195  0.87685  0.44415  1.0000
  H   H2131     1.0  0.76822  0.97316  0.23762  1.0000
  H   H2132     1.0  0.72446  0.88750  0.48204  1.0000
  H   H2133     1.0  0.75617  0.98424  0.20056  1.0000
  H   H2134     1.0  0.93822  0.86247  0.01807  1.0000
  C   C1200     1.0  0.82939  0.98699  0.18548  1.0000
  H   H2135     1.0  0.86325  0.80765  0.48209  1.0000
  H   H2136     1.0  0.69161  0.86277  0.48729  1.0000
  H   H2137     1.0  0.54666  0.88074  0.01203  1.0000
  H   H2138     1.0  0.51027  0.83722  0.00298  1.0000
  H   H2139     1.0  0.95034  0.89145  0.99262  1.0000
  H   H2140     1.0  0.91612  0.86978  0.99239  1.0000
  C   C1201     1.0  0.93543  0.87087  0.99289  1.0000
  C   C1202     1.0  0.97653  0.87636  0.41865  1.0000
  H   H2141     1.0  0.52752  0.96305  0.47891  1.0000
  H   H2142     1.0  0.56192  0.98110  0.48683  1.0000
  C   C1203     1.0  0.82790  0.98749  0.26035  1.0000
  Fe  Fe134     1.0  0.84946  0.78879  0.61690  1.0000
  S   S267      1.0  0.81274  0.75736  0.59099  1.0000
  S   S268      1.0  0.85530  0.80984  0.67048  1.0000
  Fe  Fe135     1.0  0.88299  0.78731  0.55596  1.0000
  S   S269      1.0  0.84851  0.75549  0.52683  1.0000
  S   S270      1.0  0.92474  0.80916  0.53791  1.0000
  Fe  Fe136     1.0  0.82811  0.77833  0.53965  1.0000
  H   H2143     1.0  0.89203  0.91858  0.91905  1.0000
  C   C1204     1.0  0.86699  0.91027  0.96376  1.0000
  S   S271      1.0  0.86305  0.81096  0.56645  1.0000
  S   S272      1.0  0.87248  0.76786  0.60906  1.0000
  Fe  Fe137     1.0  0.77492  0.82958  0.89284  1.0000
  S   S273      1.0  0.80672  0.85921  0.86084  1.0000
  S   S274      1.0  0.77868  0.80157  0.93146  1.0000
  Fe  Fe138     1.0  0.73404  0.84339  0.86018  1.0000
  S   S275      1.0  0.76346  0.87411  0.82694  1.0000
  S   S276      1.0  0.69263  0.83680  0.86429  1.0000
  Fe  Fe139     1.0  0.77712  0.84522  0.81470  1.0000
  S   S277      1.0  0.77847  0.83545  0.75578  1.0000
  Fe  Fe140     1.0  0.79008  0.88525  0.87615  1.0000
  S   S278      1.0  0.81671  0.92707  0.89474  1.0000
  S   S279      1.0  0.74613  0.81388  0.84590  1.0000
  S   S280      1.0  0.75993  0.85632  0.91038  1.0000
  Fe  Fe141     1.0  0.52060  0.80002  0.79606  1.0000
  S   S281      1.0  0.54975  0.83295  0.76509  1.0000
  S   S282      1.0  0.51932  0.80847  0.85553  1.0000
  H   H2144     1.0  0.87696  0.90077  0.97768  1.0000
  S   S283      1.0  0.53620  0.79290  0.69721  1.0000
  Fe  Fe142     1.0  0.56300  0.80515  0.74674  1.0000
  S   S284      1.0  0.60507  0.81390  0.74202  1.0000
  Fe  Fe143     1.0  0.52010  0.81766  0.71899  1.0000
  S   S285      1.0  0.51081  0.84611  0.68882  1.0000
  S   S286      1.0  0.53526  0.77263  0.77955  1.0000
  C   C1205     1.0  0.81261  0.94453  0.93057  1.0000
  C   C1206     1.0  0.83197  0.96993  0.93865  1.0000
  C   C1207     1.0  0.48507  0.95135  0.61578  1.0000
  H   H2145     1.0  0.77596  0.82019  0.62481  1.0000
  C   C1208     1.0  0.79067  0.93383  0.95102  1.0000
  H   H2146     1.0  0.78805  0.79166  0.58945  1.0000
  H   H2147     1.0  0.77589  0.91421  0.94550  1.0000
  C   C1209     1.0  0.66890  0.83121  0.82968  1.0000
  C   C1210     1.0  0.67314  0.82890  0.79365  1.0000
  C   C1211     1.0  0.65347  0.82379  0.76728  1.0000
  C   C1212     1.0  0.62929  0.82088  0.77648  1.0000
  C   C1213     1.0  0.62506  0.82325  0.81251  1.0000
  C   C1214     1.0  0.64481  0.82857  0.83886  1.0000
  H   H2148     1.0  0.69153  0.83087  0.78611  1.0000
  H   H2149     1.0  0.65701  0.82201  0.73953  1.0000
  H   H2150     1.0  0.60660  0.82107  0.82007  1.0000
  H   H2151     1.0  0.64124  0.83025  0.86662  1.0000
  H   H2152     1.0  0.86225  0.91897  0.90833  1.0000
  C   C1215     1.0  0.82930  0.98463  0.96644  1.0000
  C   C1216     1.0  0.83174  0.89028  0.59468  1.0000
  C   C1217     1.0  0.81906  0.90982  0.54267  1.0000
  H   H2153     1.0  0.78597  0.86526  0.63172  1.0000
  H   H2154     1.0  0.78237  0.87787  0.70758  1.0000
  C   C1218     1.0  0.83272  0.81414  0.69590  1.0000
  C   C1219     1.0  0.80691  0.80447  0.68421  1.0000
  C   C1220     1.0  0.79034  0.81051  0.70354  1.0000
  C   C1221     1.0  0.79914  0.82566  0.73524  1.0000
  C   C1222     1.0  0.82468  0.83448  0.74767  1.0000
  C   C1223     1.0  0.84139  0.82886  0.72796  1.0000
  H   H2155     1.0  0.79985  0.79277  0.65994  1.0000
  H   H2156     1.0  0.77061  0.80358  0.69376  1.0000
  H   H2157     1.0  0.83177  0.84632  0.77183  1.0000
  H   H2158     1.0  0.86130  0.83636  0.73730  1.0000
  C   C1224     1.0  0.48574  0.83907  0.65591  1.0000
  H   H2159     1.0  0.54686  0.91659  0.61456  1.0000
  H   H2160     1.0  0.47925  0.80104  0.64197  1.0000
  H   H2161     1.0  0.84648  0.88969  0.57760  1.0000
  C   C1225     1.0  0.82705  0.83801  0.49384  1.0000
  H   H2162     1.0  0.69920  0.92398  0.83369  1.0000
  C   C1226     1.0  0.57500  0.95292  0.63760  1.0000
  H   H2163     1.0  0.71809  0.97617  0.95440  1.0000
  C   C1227     1.0  0.80702  0.97418  0.98626  1.0000
  H   H2164     1.0  0.51454  0.75447  0.50767  1.0000
  C   C1228     1.0  0.54304  0.97465  0.49920  1.0000
  H   H2165     1.0  0.80307  0.90692  0.52343  1.0000
  H   H2166     1.0  0.79334  0.88707  0.58261  1.0000
  H   H2167     1.0  0.88247  0.85385  0.49718  1.0000
  H   H2168     1.0  0.83125  0.87588  0.96322  1.0000
  H   H2169     1.0  0.53831  0.80128  0.93112  1.0000
  H   H2170     1.0  0.83210  0.74729  0.95301  1.0000
  H   H2171     1.0  0.51778  0.75377  0.62843  1.0000
  H   H2172     1.0  0.82554  0.92837  0.55749  1.0000
  H   H2173     1.0  0.56726  0.94870  0.66480  1.0000
  C   C1229     1.0  0.59925  0.75622  0.69960  1.0000
  C   C1230     1.0  0.48532  0.86828  0.52506  1.0000
  H   H2174     1.0  0.89593  0.82991  0.90437  1.0000
  H   H2175     1.0  0.97700  0.84006  0.51736  1.0000
  N   N69       1.0  0.91667  0.81139  0.92837  1.0000
  H   H2176     1.0  0.95804  0.85982  0.96155  1.0000
  C   C1231     1.0  0.69863  0.89365  0.91181  1.0000
  C   C1232     1.0  0.55374  0.93731  0.60932  1.0000
  C   C1233     1.0  0.71299  0.94002  0.90187  1.0000
  C   C1234     1.0  0.73462  0.95360  0.93134  1.0000
  H   H2177     1.0  0.92575  0.83802  0.88510  1.0000
  N   N70       1.0  0.71034  0.91537  0.88563  1.0000
  C   C1235     1.0  0.71744  0.88851  0.93608  1.0000
  H   H2178     1.0  0.48814  0.96665  0.59657  1.0000
  C   C1236     1.0  0.92154  0.87888  0.51929  1.0000
  H   H2179     1.0  0.89934  0.82631  0.96515  1.0000
  H   H2180     1.0  0.48729  0.87596  0.66344  1.0000
  C   C1237     1.0  0.94165  0.80600  0.50124  1.0000
  H   H2181     1.0  0.74999  0.92324  0.89599  1.0000
  H   H2182     1.0  0.68514  0.89630  0.92926  1.0000
  C   C1238     1.0  0.89785  0.78365  0.93560  1.0000
  H   H2183     1.0  0.84452  0.87943  0.49135  1.0000
  H   H2184     1.0  0.90598  0.77632  0.95714  1.0000
  H   H2185     1.0  0.49716  0.85097  0.95115  1.0000
  H   H2186     1.0  0.69469  0.93644  0.91409  1.0000
  H   H2187     1.0  0.54117  0.77688  0.95685  1.0000
  C   C1239     1.0  0.48498  0.92787  0.59668  1.0000
  C   C1240     1.0  0.93794  0.85652  0.96047  1.0000
  C   C1241     1.0  0.90851  0.82162  0.89629  1.0000
  H   H2188     1.0  0.57116  0.75803  0.73371  1.0000
  H   H2189     1.0  0.58330  0.97388  0.63295  1.0000
  H   H2190     1.0  0.72819  0.88153  0.91959  1.0000
  C   C1242     1.0  0.77724  0.94630  0.84119  1.0000
  H   H2191     1.0  0.86969  0.85058  0.97483  1.0000
  H   H2192     1.0  0.90602  0.86403  0.57099  1.0000
  H   H2193     1.0  0.57575  0.75027  0.65050  1.0000
  S   S287      1.0  0.49024  0.78640  0.75133  1.0000
  H   H2194     1.0  0.77922  0.92897  0.83512  1.0000
  C   C1243     1.0  0.85169  0.83294  0.97672  1.0000
  C   C1244     1.0  0.50671  0.90681  0.56811  1.0000
  C   C1245     1.0  0.64764  0.89448  0.82483  1.0000
  H   H2195     1.0  0.90173  0.74752  0.71404  1.0000
  H   H2196     1.0  0.50380  0.84701  0.76415  1.0000
  H   H2197     1.0  0.89214  0.88215  0.54909  1.0000
  H   H2198     1.0  0.50032  0.95973  0.63741  1.0000
  C   C1246     1.0  0.69218  0.90806  0.85300  1.0000
  S   S288      1.0  0.80376  0.78443  0.49565  1.0000
  H   H2199     1.0  0.73157  0.90597  0.95115  1.0000
  C   C1247     1.0  0.52859  0.76226  0.60404  1.0000
  H   H2200     1.0  0.83523  0.91091  0.52710  1.0000
  C   C1248     1.0  0.88992  0.81595  0.83255  1.0000
  C   C1249     1.0  0.50679  0.83256  0.90846  1.0000
  C   C1250     1.0  0.54790  0.79786  0.95499  1.0000
  H   H2201     1.0  0.78753  0.80863  0.54963  1.0000
  H   H2202     1.0  0.58485  0.78033  0.67433  1.0000
  C   C1251     1.0  0.80670  0.80648  0.95696  1.0000
  H   H2203     1.0  0.68914  0.84934  0.94880  1.0000
  C   C1252     1.0  0.52603  0.74115  0.57783  1.0000
  H   H2204     1.0  0.64836  0.87846  0.81017  1.0000
  C   C1253     1.0  0.80494  0.78786  0.98155  1.0000
  H   H2205     1.0  0.84781  0.74394  0.91445  1.0000
  H   H2206     1.0  0.90904  0.82944  0.82214  1.0000
  H   H2207     1.0  0.61586  0.77289  0.71329  1.0000
  H   H2208     1.0  0.50179  0.84918  0.81161  1.0000
  H   H2209     1.0  0.66276  0.91741  0.87296  1.0000
  H   H2210     1.0  0.48486  0.85552  0.54698  1.0000
  H   H2211     1.0  0.90261  0.79090  0.85665  1.0000
  H   H2212     1.0  0.62717  0.88834  0.83042  1.0000
  C   C1254     1.0  0.49369  0.85128  0.78539  1.0000
  H   H2213     1.0  0.93902  0.87694  0.52614  1.0000
  H   H2214     1.0  0.63348  0.75520  0.86308  1.0000
  H   H2215     1.0  0.49750  0.87151  0.78333  1.0000
  C   C1255     1.0  0.96766  0.82454  0.49765  1.0000
  H   H2216     1.0  0.86230  0.88864  0.91404  1.0000
  H   H2217     1.0  0.74838  0.95723  0.85080  1.0000
  H   H2218     1.0  0.50307  0.87415  0.50997  1.0000
  C   C1256     1.0  0.97308  0.80079  0.89439  1.0000
  C   C1257     1.0  0.48437  0.89192  0.53996  1.0000
  H   H2219     1.0  0.47861  0.91210  0.61623  1.0000
  H   H2220     1.0  0.78843  0.95566  0.86639  1.0000
  H   H2221     1.0  0.75840  0.79050  0.57315  1.0000
  C   C1258     1.0  0.59148  0.76636  0.66648  1.0000
  H   H2222     1.0  0.71716  0.76259  0.50153  1.0000
  H   H2223     1.0  0.89498  0.77097  0.91208  1.0000
  H   H2224     1.0  0.56905  0.80783  0.95130  1.0000
  C   C1259     1.0  0.73579  0.91857  0.87326  1.0000
  H   H2225     1.0  0.82772  0.90316  0.95286  1.0000
  C   C1260     1.0  0.60196  0.74993  0.77988  1.0000
  C   C1261     1.0  0.51622  0.95135  0.55166  1.0000
  H   H2226     1.0  0.93486  0.86538  0.93603  1.0000
  H   H2227     1.0  0.92290  0.81932  0.98562  1.0000
  H   H2228     1.0  0.62027  0.75917  0.76550  1.0000
  H   H2229     1.0  0.73307  0.89989  0.86195  1.0000
  C   C1262     1.0  0.74889  0.93918  0.84449  1.0000
  H   H2230     1.0  0.59755  0.76579  0.78670  1.0000
  H   H2231     1.0  0.87839  0.80160  0.81102  1.0000
  C   C1263     1.0  0.94631  0.79897  0.89242  1.0000
  C   C1264     1.0  0.53091  0.94338  0.61122  1.0000
  C   C1265     1.0  0.57629  0.74312  0.72463  1.0000
  N   N71       1.0  0.82447  0.87039  0.62325  1.0000
  C   C1266     1.0  0.80427  0.87040  0.64701  1.0000
  C   C1267     1.0  0.81526  0.84384  0.60652  1.0000
  C   C1268     1.0  0.84828  0.87703  0.64678  1.0000
  C   C1269     1.0  0.81157  0.89590  0.66782  1.0000
  C   C1270     1.0  0.87068  0.87512  0.62887  1.0000
  C   C1271     1.0  0.78873  0.89380  0.68836  1.0000
  C   C1272     1.0  0.89284  0.88085  0.65602  1.0000
  H   H2232     1.0  0.79919  0.85517  0.66728  1.0000
  H   H2233     1.0  0.82514  0.84524  0.58115  1.0000
  H   H2234     1.0  0.82089  0.83204  0.62398  1.0000
  H   H2235     1.0  0.84294  0.86439  0.67044  1.0000
  H   H2236     1.0  0.85685  0.89713  0.65756  1.0000
  H   H2237     1.0  0.84124  0.91006  0.60678  1.0000
  H   H2238     1.0  0.82755  0.90042  0.68788  1.0000
  H   H2239     1.0  0.81735  0.91221  0.64949  1.0000
  H   H2240     1.0  0.87868  0.88941  0.60759  1.0000
  H   H2241     1.0  0.86429  0.85565  0.61710  1.0000
  H   H2242     1.0  0.77224  0.89028  0.66973  1.0000
  H   H2243     1.0  0.79456  0.91202  0.70371  1.0000
  H   H2244     1.0  0.90829  0.87868  0.64285  1.0000
  H   H2245     1.0  0.90114  0.90083  0.66706  1.0000
  H   H2246     1.0  0.88601  0.86717  0.67831  1.0000
  C   C1273     1.0  0.78568  0.82684  0.59913  1.0000
  C   C1274     1.0  0.89316  0.80216  0.86516  1.0000
  H   H2247     1.0  0.59071  0.94769  0.63623  1.0000
  H   H2248     1.0  0.90800  0.76392  0.67225  1.0000
  H   H2249     1.0  0.60570  0.74251  0.69022  1.0000
  C   C1275     1.0  0.80965  0.88742  0.56838  1.0000
  H   H2250     1.0  0.78672  0.77048  0.98384  1.0000
  C   C1276     1.0  0.87087  0.77857  0.94738  1.0000
  H   H2251     1.0  0.69211  0.87379  0.98093  1.0000
  H   H2252     1.0  0.51845  0.96997  0.56207  1.0000
  H   H2253     1.0  0.52098  0.77435  0.59139  1.0000
  C   C1277     1.0  0.78782  0.94863  0.97849  1.0000
  H   H2254     1.0  0.80267  0.86955  0.55177  1.0000
  H   H2255     1.0  0.69170  0.89121  0.83857  1.0000
  H   H2256     1.0  0.65483  0.91151  0.80752  1.0000
  H   H2257     1.0  0.55830  0.97014  0.54961  1.0000
  H   H2258     1.0  0.90444  0.73959  0.61602  1.0000
  H   H2259     1.0  0.74885  0.78867  0.49279  1.0000
  H   H2260     1.0  0.86377  0.79015  0.93217  1.0000
  N   N72       1.0  0.51018  0.93249  0.58144  1.0000
  H   H2261     1.0  0.83227  0.84253  0.93403  1.0000
  H   H2262     1.0  0.54196  0.94114  0.52183  1.0000
  C   C1278     1.0  0.62815  0.76265  0.83886  1.0000
  C   C1279     1.0  0.54115  0.95841  0.53168  1.0000
  H   H2263     1.0  0.54924  0.77482  0.61213  1.0000
  H   H2264     1.0  0.77691  0.83731  0.58501  1.0000
  C   C1280     1.0  0.89642  0.74511  0.68500  1.0000
  H   H2265     1.0  0.87626  0.93089  0.97196  1.0000
  H   H2266     1.0  0.52455  0.90878  0.55649  1.0000
  H   H2267     1.0  0.94469  0.80766  0.86694  1.0000
  H   H2268     1.0  0.52669  0.84017  0.91786  1.0000
  C   C1281     1.0  0.70287  0.86768  0.96297  1.0000
  H   H2269     1.0  0.94913  0.80748  0.94916  1.0000
  H   H2270     1.0  0.53662  0.75060  0.55386  1.0000
  H   H2271     1.0  0.68636  0.87499  0.89736  1.0000
  C   C1282     1.0  0.91834  0.82731  0.96110  1.0000
  C   C1283     1.0  0.94309  0.81380  0.92427  1.0000
  C   C1284     1.0  0.77963  0.80294  0.57647  1.0000
  H   H2272     1.0  0.87960  0.82682  0.83951  1.0000
  H   H2273     1.0  0.87350  0.78827  0.87336  1.0000
  C   C1285     1.0  0.49007  0.83854  0.92758  1.0000
  H   H2274     1.0  0.95781  0.83416  0.92068  1.0000
  H   H2275     1.0  0.48528  0.90406  0.51707  1.0000
  H   H2276     1.0  0.49970  0.94448  0.53179  1.0000
  Fe  Fe144     1.0  0.50763  0.76208  0.73140  1.0000
  H   H2277     1.0  0.84910  0.97837  0.92313  1.0000
  C   C1286     1.0  0.91016  0.88094  0.55436  1.0000
  C   C1287     1.0  0.66379  0.90107  0.85992  1.0000
  C   C1288     1.0  0.49802  0.81703  0.87708  1.0000
  H   H2278     1.0  0.50472  0.80121  0.97054  1.0000
  H   H2279     1.0  0.56249  0.94142  0.58292  1.0000
  C   C1289     1.0  0.83043  0.82867  0.95392  1.0000
  H   H2280     1.0  0.50327  0.89382  0.59106  1.0000
  H   H2281     1.0  0.92795  0.89725  0.50542  1.0000
  H   H2282     1.0  0.61984  0.77500  0.84756  1.0000
  H   H2283     1.0  0.73894  0.93160  0.81797  1.0000
  C   C1290     1.0  0.87104  0.90897  0.92385  1.0000
  H   H2284     1.0  0.87217  0.78390  0.97611  1.0000
  C   C1291     1.0  0.85080  0.75017  0.94304  1.0000
  H   H2285     1.0  0.60838  0.77640  0.64953  1.0000
  H   H2286     1.0  0.65457  0.88408  0.87716  1.0000
  H   H2287     1.0  0.71582  0.95422  0.88081  1.0000
  H   H2288     1.0  0.75385  0.95798  0.92187  1.0000
  H   H2289     1.0  0.78562  0.96003  0.81924  1.0000
  H   H2290     1.0  0.64599  0.77443  0.82429  1.0000
  H   H2291     1.0  0.93191  0.77825  0.89198  1.0000
  H   H2292     1.0  0.90050  0.83834  0.51110  1.0000
  H   H2293     1.0  0.83870  0.83833  0.51695  1.0000
  H   H2294     1.0  0.73034  0.94155  0.95523  1.0000
  H   H2295     1.0  0.92428  0.89853  0.56962  1.0000
  H   H2296     1.0  0.53905  0.96468  0.61363  1.0000
  H   H2297     1.0  0.52241  0.93578  0.63750  1.0000
  H   H2298     1.0  0.79064  0.85134  0.96984  1.0000
  C   C1292     1.0  0.90189  0.85515  0.49619  1.0000
  C   C1293     1.0  0.54205  0.80830  0.98891  1.0000
  H   H2299     1.0  0.97529  0.79052  0.87097  1.0000
  C   C1294     1.0  0.83792  0.89611  0.97152  1.0000
  H   H2300     1.0  0.97571  0.79181  0.91907  1.0000
  H   H2301     1.0  0.87559  0.73946  0.68160  1.0000
  H   H2302     1.0  0.71681  0.86416  0.97948  1.0000
  C   C1295     1.0  0.73657  0.97921  0.94345  1.0000
  C   C1296     1.0  0.60843  0.74023  0.81528  1.0000
  H   H2303     1.0  0.54984  0.82930  0.98557  1.0000
  H   H2304     1.0  0.85704  0.73808  0.95875  1.0000
