data_image0
_chemical_formula_structural       CFeS2FeSCFeSFeS3FeS2FeS2FeHFeS3CFeSNH3CHC2H6C6H2CHC6H4C4H2CH4CNC12H20CH7SHCH3NC4H20NH5C2H3C2H3CH2CHC2HCH7C2H3CH2CSH2CHNC12H28CH3CHCH3C2H3CSCH10CHCHC3H2CSCHC3H3FeS2FeS2FeSHFeS2FeSFeS3FeS2FeS2FeSFeS3C3HC2H3C3NHCHCH2C4H2CH2CH2CNC5H4C6H5SCH7CH4CHCH3CH2CHC2H2C2HCHCHC2HNC8H18C3H3CH10FeHC2HCH4C2H3CHCHCH2CH2CHCH2C2H4CH7CH2CH2CH5C3HNC6HC5H16C2H10C3H3C2H4C2H3CH3CHCH9CH5C2H4CH2CH6FeSHFeSHFeSFeHSFeSFeCHFeSCSC2HCH2C4H2C4HCH5C3H4SFeCSFeSC2FeS3FeS2FeS2FeSFeS2H3NHC6H3C7H2C3H3C2H2C2HCHCHCH3CSCSH6CHC2H4NC7H12CH2NHC2H2SCH2CH2CH3S2HSH6CH3CH2C2H4CHNHC4HC4HCSH9CH11CHCH5CHCH4CH2SHCH9CHCH3SHCH3CHCHSHFeS2FeS2FeSFeCS2CH4C4H3C6H4CH3CHFeS2FeS2FeSFeS3FeCSHS2C6H4CHC2HC2H2CH3CH2C2H3CH3CH13FeCH2CH2C3H2CH2C2H5C2H10NC5HC3H2CHNH6NCH4CHC2H10C2H3CHCHC2H4CH2CHCH3C3HC3NHCHCHCH3CH2CHC2H3CH2C2H6C2H2CNCH7CHC2SNHCHCH3CHCHSH2CH5CH3CFeCSCHSH4CHNH3C2H2FeS2FeS2FeSFeS4FeS2FeSHFeSFeS3CH2CH2CNC2HC2HNH3CHC2H2C6H4C6H4CHCH2NC9HC2H9CH11CH9CHCH5CH5CH3CH4CH2C2HSH3CH3C4HNH3C4H3CH9CHC2H2CHCH2C3H11CH4C4HCH5CH4CH4FeH6CHCH3CHNHCNC4H2NHC2HCHCH2C2H12CHCH5C3H2SC8H2CH4C2H4C4H2CH5CH8CH3FeS2FeS2FeSFeS3HSHFeSHFeS2FeSCFeSFeS3H5C6H5C2H6CH5CHCHNCHCH2CHC6H4C2H2CHCH3C4HSCH10CH2CH3CH5CHCHCH4CHCH5S2H5CH2CH3C2HCH3CHCH2CHFeC2HCHCHC2H2CH2CHCH3CH2CHCH3CHC3H3CHCHC2HNCH2CH3CHC2HSHNH2CH2NH2C3H2C3H2CH3CH8CH3C2HC2HCH3CHCHC2HCHCHFeS2FeSHFeSFeS3FeS2FeS2FeSFeS3C2SH4CH2C3H4C6H4C6H4C2HCH2CH5CHC2H2CH2CHCH9CHCH2C2HC4H3CHC3HCH2C2H6CH2CH5C3NHCHC2H2CHNC8H3CH11NHSCH3FeH2C2H3C3HCH3C2H3NH7C2H4CH3CH2CHCH2CH4CHNH2CH3C2H2CH3CH10CHC2H9CH2NHC4HFe2S2FeS2FeSHFeS2FeSFeS3FeS2FeS2FeSFeS3C6H3C3H2CH4C3H3CH3CH2C3H2CH4C6H4C2H2CHCH6CHCHCHCH4CHNHCHNC3H2SCH2CH2NH2CH4CH6CHCH4CH9CH2NCH3C2H8C2H4C2HC2HCH4CH3CNC2H2C2HC3HCH3CHSCNH5NHCH2CH3CHCHCH4CHCHC3HCH4CH2SH2C3H6CHCHCH3C4HCH5C5H4CH4CH13C2H2CH2CHCHCHC2H5FeSHFeSHFeSFeHSFeSFeHCFeSCSC2HCH2C4H2C4HCH4C4H3CHFeS2FeSC2FeS3FeSHFeSHFeSFeS2H2SHC7H3C7H2C4H2C2H3S2NCH2C2FeCHCSCHCH8CH2C2SH5CH2NHCH2C2H2CH3CH2CH4NHCHCHCHC3HNC10H13SC2H12NC11H25C2SH2CHCHCSH5SCH4CSH6CHSH3CH3CH8C5H10CH2SHFeS2FeS2FeSFeS3HN2H2C4H3C6H8C2FeS2FeS2FeSFeS3Fe2SCHSC6H3CH4C3H3SH2C2H6CHCH2CH3C2H14CHC2H6CHCH2C2H3C3NC4HNC3HC2H21CH2CH5CH2C2HCHCH2C3H2CH3SCH3CHCH2CHCHCHC2H13CH5CHC2H2C2HNC2H2CHCHCH2CH2CH2CH2CH2CH2CHCH3CH3CH4CFeS2FeS2FeSFeS4FeS2FeSHFeSFeS3C2HCH2C6H2CH2C5H2C6H3C7H6CH3C3H2C3H2CH11CH5CHCH2CH3CHNHCH3NC12H18CH9NC2H2CH2CH8CH5CH4CH2CH3CH2CHCH2CH6C2HCH6CH2CH4CH10CH2CHNC4H2C2H3C2H3CH7CHCH3CH2CH3C3H5C2H4CH4CH2CNH4CHCHC2H2CHCH6CH4FeS2FeS2FeSFeS3HSHFeSHFeS2FeSCFeSFeS3CHC2HC6H5C2HCHC7H4C3H2CHSH2C6H4C3HCH3CH5CHCH3CH8CHCH3CH4NH3NH5CHCHNCH4CHCHC2H5CHC2SCHCHCHCH2CFeHCHC6H5SFeH2CSH10C2HCH4NHNC12H23CH4CHCHCH2CH3C2H2
_chemical_formula_sum              "C1152 Fe128 S256 H2048 N64"
_cell_length_a       45.8315
_cell_length_b       45.8956
_cell_length_c       40.5593
_cell_angle_alpha    90.1748
_cell_angle_beta     89.995
_cell_angle_gamma    90.0942

_space_group_name_H-M_alt    "P 1"
_space_group_IT_number       1

loop_
  _space_group_symop_operation_xyz
  'x, y, z'

loop_
  _atom_site_type_symbol
  _atom_site_label
  _atom_site_symmetry_multiplicity
  _atom_site_fract_x
  _atom_site_fract_y
  _atom_site_fract_z
  _atom_site_occupancy
  C   C1        1.0  0.20544  0.05123  0.44113  1.0000
  Fe  Fe1       1.0  0.06111  0.10291  0.14614  1.0000
  S   S1        1.0  0.08886  0.13612  0.17306  1.0000
  S   S2        1.0  0.07942  0.07668  0.10207  1.0000
  Fe  Fe2       1.0  0.01406  0.10369  0.20142  1.0000
  S   S3        1.0  0.03864  0.13632  0.23210  1.0000
  C   C2        1.0  0.09317  0.27565  0.20515  1.0000
  Fe  Fe3       1.0  0.04619  0.15889  0.18366  1.0000
  S   S4        1.0  0.04427  0.20822  0.18428  1.0000
  Fe  Fe4       1.0  0.07962  0.11138  0.21957  1.0000
  S   S5        1.0  0.11191  0.09531  0.25872  1.0000
  S   S6        1.0  0.01907  0.12784  0.15327  1.0000
  S   S7        1.0  0.05429  0.07680  0.19250  1.0000
  Fe  Fe5       1.0  0.30245  0.10955  0.39907  1.0000
  S   S8        1.0  0.33773  0.07875  0.38274  1.0000
  S   S9        1.0  0.28982  0.12117  0.45251  1.0000
  Fe  Fe6       1.0  0.27493  0.11056  0.32858  1.0000
  S   S10       1.0  0.30819  0.07906  0.30806  1.0000
  S   S11       1.0  0.24190  0.13488  0.29648  1.0000
  Fe  Fe7       1.0  0.30173  0.05508  0.35606  1.0000
  H   H1        1.0  0.09830  0.22687  0.31553  1.0000
  Fe  Fe8       1.0  0.34145  0.10535  0.33620  1.0000
  S   S12       1.0  0.38445  0.12347  0.31549  1.0000
  S   S13       1.0  0.26626  0.08443  0.37414  1.0000
  S   S14       1.0  0.30851  0.13833  0.35449  1.0000
  C   C3        1.0  0.33381  0.04362  0.45910  1.0000
  Fe  Fe9       1.0  0.43026  0.30648  0.19689  1.0000
  S   S15       1.0  0.43854  0.26047  0.21485  1.0000
  N   N1        1.0  0.11982  0.26911  0.22567  1.0000
  H   H2        1.0  0.05357  0.30016  0.16051  1.0000
  H   H3        1.0  0.42416  0.11913  0.14575  1.0000
  H   H4        1.0  0.42049  0.99043  0.22770  1.0000
  C   C4        1.0  0.46733  0.24018  0.19730  1.0000
  H   H5        1.0  0.46653  0.03818  0.08745  1.0000
  C   C5        1.0  0.00811  0.25559  0.18583  1.0000
  C   C6        1.0  0.01111  0.22631  0.17632  1.0000
  H   H6        1.0  0.06623  0.20896  0.29949  1.0000
  H   H7        1.0  0.30330  0.99883  0.23638  1.0000
  H   H8        1.0  0.24568  0.03568  0.41874  1.0000
  H   H9        1.0  0.02583  0.26653  0.19836  1.0000
  H   H10       1.0  0.19706  0.27880  0.42453  1.0000
  H   H11       1.0  0.19274  0.00093  0.35511  1.0000
  C   C7        1.0  0.41037  0.10720  0.28832  1.0000
  C   C8        1.0  0.40467  0.08117  0.27147  1.0000
  C   C9        1.0  0.42581  0.06921  0.24998  1.0000
  C   C10       1.0  0.45281  0.08321  0.24481  1.0000
  C   C11       1.0  0.45831  0.10947  0.26128  1.0000
  C   C12       1.0  0.43721  0.12137  0.28284  1.0000
  H   H12       1.0  0.38392  0.07037  0.27493  1.0000
  H   H13       1.0  0.45837  0.11753  0.16753  1.0000
  C   C13       1.0  0.09099  0.23281  0.26280  1.0000
  H   H14       1.0  0.44182  0.14163  0.29552  1.0000
  C   C14       1.0  0.14825  0.10648  0.26822  1.0000
  C   C15       1.0  0.16118  0.13100  0.25387  1.0000
  C   C16       1.0  0.18983  0.13934  0.26275  1.0000
  C   C17       1.0  0.20603  0.12312  0.28579  1.0000
  C   C18       1.0  0.19315  0.09855  0.30007  1.0000
  C   C19       1.0  0.16441  0.09040  0.29143  1.0000
  H   H15       1.0  0.14900  0.14355  0.23607  1.0000
  H   H16       1.0  0.19953  0.15839  0.25157  1.0000
  H   H17       1.0  0.20520  0.08589  0.31791  1.0000
  H   H18       1.0  0.15463  0.07143  0.30274  1.0000
  C   C20       1.0  0.07455  0.07624  0.05826  1.0000
  C   C21       1.0  0.05099  0.08986  0.04268  1.0000
  C   C22       1.0  0.34099  0.13277  0.48796  1.0000
  C   C23       1.0  0.09459  0.06066  0.03859  1.0000
  H   H19       1.0  0.03530  0.10184  0.05729  1.0000
  H   H20       1.0  0.11286  0.04997  0.05027  1.0000
  C   C24       1.0  0.99537  0.05636  0.10147  1.0000
  H   H21       1.0  0.19268  0.03092  0.44351  1.0000
  H   H22       1.0  0.24915  0.06787  0.44249  1.0000
  H   H23       1.0  0.24034  0.02690  0.35347  1.0000
  H   H24       1.0  0.06626  0.26573  0.14392  1.0000
  C   C25       1.0  0.08209  0.00448  0.16688  1.0000
  N   N2        1.0  0.25013  0.22062  0.36757  1.0000
  C   C26       1.0  0.23417  0.23893  0.39272  1.0000
  C   C27       1.0  0.28075  0.21518  0.37986  1.0000
  C   C28       1.0  0.25256  0.23835  0.33630  1.0000
  C   C29       1.0  0.23469  0.19223  0.35970  1.0000
  C   C30       1.0  0.21626  0.17808  0.38756  1.0000
  C   C31       1.0  0.20431  0.25124  0.38135  1.0000
  C   C32       1.0  0.27132  0.22480  0.30827  1.0000
  C   C33       1.0  0.28376  0.19773  0.41232  1.0000
  C   C34       1.0  0.31551  0.19696  0.42390  1.0000
  C   C35       1.0  0.20449  0.14836  0.37681  1.0000
  C   C36       1.0  0.18580  0.26113  0.41067  1.0000
  C   C37       1.0  0.26591  0.24012  0.27541  1.0000
  H   H25       1.0  0.24779  0.25805  0.40007  1.0000
  H   H26       1.0  0.23062  0.22671  0.41591  1.0000
  H   H27       1.0  0.29351  0.20261  0.36137  1.0000
  H   H28       1.0  0.29244  0.23635  0.38303  1.0000
  H   H29       1.0  0.26170  0.26041  0.34176  1.0000
  H   H30       1.0  0.23053  0.24227  0.32565  1.0000
  H   H31       1.0  0.21950  0.19491  0.33845  1.0000
  H   H32       1.0  0.25077  0.17567  0.35117  1.0000
  H   H33       1.0  0.19710  0.19176  0.39373  1.0000
  H   H34       1.0  0.22898  0.17501  0.41045  1.0000
  H   H35       1.0  0.20800  0.27046  0.36527  1.0000
  H   H36       1.0  0.19169  0.23495  0.36694  1.0000
  H   H37       1.0  0.26644  0.20128  0.30484  1.0000
  H   H38       1.0  0.29489  0.22723  0.31410  1.0000
  H   H39       1.0  0.27077  0.20729  0.43266  1.0000
  H   H40       1.0  0.27686  0.17482  0.40829  1.0000
  H   H41       1.0  0.34170  0.03491  0.48301  1.0000
  H   H42       1.0  0.32365  0.21932  0.42903  1.0000
  H   H43       1.0  0.23683  0.98930  0.24437  1.0000
  H   H44       1.0  0.19076  0.15046  0.35435  1.0000
  C   C38       1.0  0.23971  0.00375  0.35814  1.0000
  H   H45       1.0  0.19093  0.13892  0.39679  1.0000
  H   H46       1.0  0.02860  0.00903  0.25540  1.0000
  H   H47       1.0  0.02874  0.02131  0.19583  1.0000
  H   H48       1.0  0.44721  0.18883  0.48309  1.0000
  H   H49       1.0  0.26983  0.26393  0.27781  1.0000
  H   H50       1.0  0.28089  0.23124  0.25636  1.0000
  H   H51       1.0  0.24309  0.23642  0.26712  1.0000
  S   S16       1.0  0.29979  0.00625  0.36340  1.0000
  H   H52       1.0  0.08394  0.02380  0.15063  1.0000
  C   C39       1.0  0.11009  0.26054  0.25989  1.0000
  H   H53       1.0  0.08027  0.25568  0.20054  1.0000
  H   H54       1.0  0.11456  0.23071  0.16702  1.0000
  H   H55       1.0  0.10658  0.21062  0.20348  1.0000
  N   N3        1.0  0.25028  0.02796  0.47102  1.0000
  C   C40       1.0  0.19648  0.06573  0.40884  1.0000
  C   C41       1.0  0.24800  0.00663  0.25883  1.0000
  C   C42       1.0  0.04742  0.08757  0.00810  1.0000
  C   C43       1.0  0.25028  0.99585  0.46265  1.0000
  H   H56       1.0  0.99419  0.00658  0.18755  1.0000
  H   H57       1.0  0.30394  0.30136  0.29941  1.0000
  H   H58       1.0  0.28297  0.06063  0.48293  1.0000
  H   H59       1.0  0.29781  0.28271  0.21054  1.0000
  H   H60       1.0  0.22274  0.13321  0.37144  1.0000
  H   H61       1.0  0.47636  0.03642  0.14787  1.0000
  H   H62       1.0  0.32963  0.18648  0.40503  1.0000
  H   H63       1.0  0.46774  0.20856  0.23650  1.0000
  H   H64       1.0  0.30739  0.00692  0.44679  1.0000
  H   H65       1.0  0.42671  0.09971  0.18435  1.0000
  H   H66       1.0  0.07637  0.01186  0.19212  1.0000
  H   H67       1.0  0.39676  0.01949  0.28680  1.0000
  H   H68       1.0  0.28362  0.01217  0.29212  1.0000
  H   H69       1.0  0.17253  0.06940  0.40865  1.0000
  H   H70       1.0  0.17700  0.27669  0.24914  1.0000
  H   H71       1.0  0.07165  0.23361  0.24648  1.0000
  H   H72       1.0  0.44485  0.99015  0.17089  1.0000
  H   H73       1.0  0.47886  0.12062  0.25750  1.0000
  H   H74       1.0  0.13536  0.18186  0.16373  1.0000
  H   H75       1.0  0.09791  0.27891  0.27147  1.0000
  N   N4        1.0  0.02783  0.99235  0.15364  1.0000
  H   H76       1.0  0.20207  0.05168  0.38744  1.0000
  H   H77       1.0  0.06614  0.24793  0.30544  1.0000
  H   H78       1.0  0.14603  0.30357  0.20433  1.0000
  H   H79       1.0  0.07808  0.29031  0.21897  1.0000
  H   H80       1.0  0.30161  0.13634  0.26661  1.0000
  C   C44       1.0  0.09132  0.05883  0.00394  1.0000
  C   C45       1.0  0.30404  0.03066  0.45031  1.0000
  H   H81       1.0  0.01081  0.07381  0.10907  1.0000
  H   H82       1.0  0.15560  0.18741  0.20129  1.0000
  H   H83       1.0  0.40843  0.00191  0.32407  1.0000
  C   C46       1.0  0.28153  0.03677  0.47800  1.0000
  C   C47       1.0  0.13922  0.24597  0.21060  1.0000
  H   H84       1.0  0.27633  0.31076  0.16420  1.0000
  H   H85       1.0  0.15567  0.25599  0.19386  1.0000
  H   H86       1.0  0.03935  0.03697  0.14143  1.0000
  C   C48       1.0  0.23892  0.04582  0.44252  1.0000
  H   H87       1.0  0.40324  0.19826  0.30789  1.0000
  H   H88       1.0  0.35246  0.13119  0.46472  1.0000
  C   C49       1.0  0.07237  0.28879  0.14893  1.0000
  H   H89       1.0  0.33055  0.30427  0.20809  1.0000
  C   C50       1.0  0.07978  0.22902  0.29803  1.0000
  C   C51       1.0  0.14634  0.19848  0.17935  1.0000
  H   H90       1.0  0.12919  0.25642  0.27609  1.0000
  C   C52       1.0  0.01778  0.00094  0.18774  1.0000
  H   H91       1.0  0.42110  0.04914  0.23704  1.0000
  H   H92       1.0  0.32880  0.00286  0.30353  1.0000
  H   H93       1.0  0.16429  0.20838  0.16477  1.0000
  H   H94       1.0  0.30064  0.17446  0.25664  1.0000
  H   H95       1.0  0.11777  0.28002  0.15848  1.0000
  H   H96       1.0  0.20753  0.08712  0.40621  1.0000
  H   H97       1.0  0.10414  0.21320  0.25693  1.0000
  C   C53       1.0  0.12426  0.22165  0.18985  1.0000
  C   C54       1.0  0.47715  0.21487  0.21318  1.0000
  H   H98       1.0  0.37650  0.02482  0.32476  1.0000
  H   H99       1.0  0.30486  0.31265  0.09824  1.0000
  H   H100      1.0  0.29579  0.14727  0.22455  1.0000
  C   C55       1.0  0.31079  0.12830  0.48886  1.0000
  H   H101      1.0  0.31995  0.28122  0.17384  1.0000
  H   H102      1.0  0.18131  0.24264  0.42754  1.0000
  C   C56       1.0  0.09910  0.29035  0.17139  1.0000
  S   S17       1.0  0.47870  0.06707  0.21746  1.0000
  H   H103      1.0  0.31708  0.18407  0.44697  1.0000
  H   H104      1.0  0.25504  0.30432  0.07575  1.0000
  C   C57       1.0  0.38903  0.00886  0.30972  1.0000
  H   H105      1.0  0.15226  0.23511  0.23022  1.0000
  N   N5        1.0  0.38245  0.17714  0.20972  1.0000
  C   C58       1.0  0.35004  0.17399  0.21526  1.0000
  C   C59       1.0  0.38869  0.19899  0.18254  1.0000
  C   C60       1.0  0.39397  0.14794  0.19841  1.0000
  C   C61       1.0  0.39832  0.18525  0.24100  1.0000
  C   C62       1.0  0.38679  0.21215  0.25994  1.0000
  C   C63       1.0  0.34062  0.15191  0.24221  1.0000
  C   C64       1.0  0.42691  0.14715  0.18911  1.0000
  C   C65       1.0  0.36686  0.22439  0.17737  1.0000
  C   C66       1.0  0.37769  0.24490  0.15027  1.0000
  C   C67       1.0  0.40462  0.21742  0.29125  1.0000
  C   C68       1.0  0.30765  0.15268  0.24766  1.0000
  C   C69       1.0  0.43437  0.11912  0.17057  1.0000
  H   H106      1.0  0.33918  0.16737  0.19180  1.0000
  H   H107      1.0  0.34016  0.19521  0.22218  1.0000
  H   H108      1.0  0.41075  0.20880  0.18583  1.0000
  H   H109      1.0  0.38956  0.18784  0.15807  1.0000
  H   H110      1.0  0.38112  0.14002  0.17681  1.0000
  H   H111      1.0  0.39131  0.13116  0.21794  1.0000
  H   H112      1.0  0.39855  0.16658  0.25845  1.0000
  H   H113      1.0  0.42167  0.18954  0.23565  1.0000
  H   H114      1.0  0.36373  0.20922  0.26751  1.0000
  H   H115      1.0  0.38871  0.23195  0.24469  1.0000
  H   H116      1.0  0.34634  0.12928  0.23508  1.0000
  H   H117      1.0  0.35106  0.15697  0.26619  1.0000
  H   H118      1.0  0.44046  0.14812  0.21176  1.0000
  H   H119      1.0  0.43361  0.16558  0.17320  1.0000
  H   H120      1.0  0.34532  0.21581  0.16931  1.0000
  H   H121      1.0  0.36365  0.23737  0.20009  1.0000
  H   H122      1.0  0.36177  0.26270  0.14632  1.0000
  H   H123      1.0  0.39894  0.25482  0.15727  1.0000
  H   H124      1.0  0.38043  0.23296  0.12661  1.0000
  H   H125      1.0  0.42785  0.22163  0.28495  1.0000
  H   H126      1.0  0.39601  0.23679  0.30450  1.0000
  H   H127      1.0  0.19864  0.06602  0.46140  1.0000
  H   H128      1.0  0.11146  0.29866  0.49858  1.0000
  H   H129      1.0  0.47340  0.00862  0.19201  1.0000
  H   H130      1.0  0.36512  0.98901  0.22189  1.0000
  H   H131      1.0  0.40918  0.17918  0.48571  1.0000
  H   H132      1.0  0.33250  0.06775  0.46070  1.0000
  H   H133      1.0  0.25506  0.02438  0.24204  1.0000
  C   C70       1.0  0.16346  0.29644  0.25289  1.0000
  H   H134      1.0  0.16455  0.26966  0.40180  1.0000
  H   H135      1.0  0.03499  0.01387  0.10680  1.0000
  H   H136      1.0  0.29674  0.04030  0.42667  1.0000
  C   C71       1.0  0.42641  0.19354  0.49612  1.0000
  H   H137      1.0  0.12267  0.31534  0.23652  1.0000
  C   C72       1.0  0.99489  0.03197  0.12705  1.0000
  H   H138      1.0  0.15565  0.29679  0.27882  1.0000
  H   H139      1.0  0.46347  0.99013  0.11686  1.0000
  H   H140      1.0  0.01395  0.23299  0.25113  1.0000
  C   C73       1.0  0.13715  0.29707  0.22876  1.0000
  C   C74       1.0  0.31178  0.29572  0.19371  1.0000
  H   H141      1.0  0.23212  0.01582  0.27677  1.0000
  H   H142      1.0  0.07726  0.29953  0.12506  1.0000
  H   H143      1.0  0.47288  0.26791  0.15508  1.0000
  C   C75       1.0  0.02583  0.01885  0.13169  1.0000
  S   S18       1.0  0.16852  0.32062  0.35442  1.0000
  C   C76       1.0  0.00306  0.24060  0.27404  1.0000
  H   H144      1.0  0.10436  0.31378  0.17517  1.0000
  H   H145      1.0  0.05276  0.31246  0.26926  1.0000
  H   H146      1.0  0.00610  0.22392  0.29352  1.0000
  H   H147      1.0  0.01370  0.26117  0.28216  1.0000
  H   H148      1.0  0.34629  0.00883  0.26593  1.0000
  H   H149      1.0  0.00214  0.04782  0.07697  1.0000
  H   H150      1.0  0.99004  0.18974  0.15294  1.0000
  H   H151      1.0  0.28246  0.30442  0.04389  1.0000
  H   H152      1.0  0.34991  0.03777  0.43973  1.0000
  H   H153      1.0  0.12828  0.00719  0.17796  1.0000
  C   C77       1.0  0.48044  0.24868  0.16774  1.0000
  H   H154      1.0  0.45290  0.00413  0.24807  1.0000
  C   C78       1.0  0.48580  0.99268  0.12741  1.0000
  H   H155      1.0  0.42002  0.21652  0.49155  1.0000
  C   C79       1.0  0.27105  0.31816  0.06244  1.0000
  C   C80       1.0  0.29404  0.32067  0.17904  1.0000
  C   C81       1.0  0.11242  0.99079  0.16862  1.0000
  H   H156      1.0  0.26313  0.99168  0.43984  1.0000
  H   H157      1.0  0.99085  0.99902  0.24877  1.0000
  C   C82       1.0  0.21281  0.98896  0.35876  1.0000
  S   S19       1.0  0.38768  0.32141  0.17541  1.0000
  C   C83       1.0  0.48897  0.04088  0.09735  1.0000
  H   H158      1.0  0.99055  0.15626  0.48202  1.0000
  C   C84       1.0  0.34154  0.99147  0.28423  1.0000
  C   C85       1.0  0.27410  0.99412  0.27744  1.0000
  C   C86       1.0  0.01363  0.99081  0.24890  1.0000
  H   H159      1.0  0.20973  0.02789  0.49882  1.0000
  H   H160      1.0  0.23462  0.08094  0.49824  1.0000
  H   H161      1.0  0.11471  0.29824  0.55979  1.0000
  Fe  Fe10      1.0  0.12123  0.26176  0.70233  1.0000
  S   S20       1.0  0.08443  0.28587  0.72649  1.0000
  S   S21       1.0  0.14422  0.22286  0.72624  1.0000
  Fe  Fe11      1.0  0.06805  0.29183  0.67491  1.0000
  S   S22       1.0  0.01983  0.28742  0.66493  1.0000
  S   S23       1.0  0.10317  0.26489  0.65068  1.0000
  Fe  Fe12      1.0  0.09049  0.01164  0.84111  1.0000
  S   S24       1.0  0.12404  0.03794  0.81353  1.0000
  H   H162      1.0  0.47375  0.12812  0.63528  1.0000
  Fe  Fe13      1.0  0.08910  0.05535  0.90038  1.0000
  S   S25       1.0  0.12265  0.08449  0.87655  1.0000
  S   S26       1.0  0.06116  0.06921  0.94495  1.0000
  Fe  Fe14      1.0  0.09879  0.07797  0.82861  1.0000
  S   S27       1.0  0.08178  0.11311  0.79326  1.0000
  Fe  Fe15      1.0  0.14527  0.04232  0.86341  1.0000
  S   S28       1.0  0.19408  0.03888  0.87048  1.0000
  S   S29       1.0  0.06365  0.05131  0.85302  1.0000
  S   S30       1.0  0.11345  0.01347  0.89031  1.0000
  Fe  Fe16      1.0  0.40521  0.15785  0.69363  1.0000
  S   S31       1.0  0.37983  0.19117  0.66563  1.0000
  S   S32       1.0  0.45417  0.16120  0.69885  1.0000
  Fe  Fe17      1.0  0.35214  0.11926  0.70566  1.0000
  S   S33       1.0  0.32272  0.15043  0.67786  1.0000
  S   S34       1.0  0.33193  0.07694  0.72543  1.0000
  Fe  Fe18      1.0  0.35859  0.15305  0.63967  1.0000
  S   S35       1.0  0.36243  0.15408  0.58297  1.0000
  Fe  Fe19      1.0  0.34669  0.18599  0.70588  1.0000
  S   S36       1.0  0.32264  0.22474  0.72902  1.0000
  S   S37       1.0  0.38631  0.11988  0.66585  1.0000
  S   S38       1.0  0.37350  0.15467  0.73585  1.0000
  C   C87       1.0  0.34756  0.05055  0.75233  1.0000
  C   C88       1.0  0.33235  0.02438  0.75824  1.0000
  C   C89       1.0  0.32522  0.01026  0.93162  1.0000
  H   H163      1.0  0.08617  0.21870  0.78926  1.0000
  C   C90       1.0  0.38559  0.03364  0.78966  1.0000
  C   C91       1.0  0.37427  0.05508  0.76828  1.0000
  H   H164      1.0  0.31185  0.02039  0.74588  1.0000
  H   H165      1.0  0.40621  0.03743  0.80181  1.0000
  H   H166      1.0  0.38616  0.07512  0.76419  1.0000
  C   C92       1.0  0.34041  0.25339  0.75117  1.0000
  C   C93       1.0  0.37081  0.25487  0.75386  1.0000
  C   C94       1.0  0.38407  0.27787  0.77158  1.0000
  N   N6        1.0  0.45659  0.20772  0.58519  1.0000
  H   H167      1.0  0.37959  0.14369  0.51596  1.0000
  C   C95       1.0  0.32356  0.27532  0.76631  1.0000
  H   H168      1.0  0.38414  0.23825  0.74240  1.0000
  C   C96       1.0  0.45845  0.12598  0.61415  1.0000
  H   H169      1.0  0.31949  0.03225  0.94107  1.0000
  H   H170      1.0  0.30007  0.27426  0.76478  1.0000
  C   C97       1.0  0.31182  0.13728  0.54876  1.0000
  C   C98       1.0  0.34193  0.14251  0.54770  1.0000
  C   C99       1.0  0.35633  0.14000  0.51711  1.0000
  C   C100      1.0  0.00088  0.16043  0.78336  1.0000
  H   H171      1.0  0.30033  0.13925  0.57194  1.0000
  H   H172      1.0  0.17895  0.99972  0.78287  1.0000
  C   C101      1.0  0.23572  0.06385  0.51751  1.0000
  H   H173      1.0  0.03743  0.05870  0.78531  1.0000
  H   H174      1.0  0.25352  0.02011  0.87344  1.0000
  C   C102      1.0  0.13926  0.26495  0.80568  1.0000
  H   H175      1.0  0.05496  0.00377  0.92276  1.0000
  H   H176      1.0  0.46120  0.04731  0.79161  1.0000
  C   C103      1.0  0.10489  0.28013  0.88032  1.0000
  N   N7        1.0  0.09469  0.24142  0.83498  1.0000
  C   C104      1.0  0.00472  0.20393  0.69350  1.0000
  C   C105      1.0  0.01914  0.23010  0.68558  1.0000
  C   C106      1.0  0.00292  0.25503  0.67804  1.0000
  C   C107      1.0  0.46528  0.24871  0.69125  1.0000
  C   C108      1.0  0.45239  0.22115  0.69528  1.0000
  H   H177      1.0  0.01728  0.18446  0.69827  1.0000
  H   H178      1.0  0.04272  0.23076  0.68441  1.0000
  H   H179      1.0  0.45185  0.26805  0.69249  1.0000
  H   H180      1.0  0.42926  0.21942  0.70011  1.0000
  C   C109      1.0  0.12679  0.19178  0.74360  1.0000
  C   C110      1.0  0.14282  0.17330  0.76449  1.0000
  C   C111      1.0  0.12956  0.14895  0.77961  1.0000
  C   C112      1.0  0.10011  0.14268  0.77380  1.0000
  C   C113      1.0  0.08424  0.16089  0.75247  1.0000
  C   C114      1.0  0.09747  0.18524  0.73738  1.0000
  H   H181      1.0  0.16555  0.17805  0.76929  1.0000
  H   H182      1.0  0.14197  0.13512  0.79595  1.0000
  H   H183      1.0  0.06152  0.15617  0.74760  1.0000
  H   H184      1.0  0.08491  0.19905  0.72113  1.0000
  H   H185      1.0  0.17801  0.25802  0.58972  1.0000
  S   S39       1.0  0.14789  0.30269  0.69656  1.0000
  C   C115      1.0  0.06756  0.07215  0.98841  1.0000
  H   H186      1.0  0.47553  0.02348  0.74648  1.0000
  H   H187      1.0  0.40752  0.27861  0.77356  1.0000
  H   H188      1.0  0.45728  0.07651  0.84219  1.0000
  H   H189      1.0  0.03839  0.21469  0.82098  1.0000
  H   H190      1.0  0.47321  0.18859  0.76431  1.0000
  H   H191      1.0  0.03450  0.25367  0.81875  1.0000
  H   H192      1.0  0.42896  0.26396  0.59862  1.0000
  C   C116      1.0  0.46737  0.17882  0.59835  1.0000
  H   H193      1.0  0.06356  0.27044  0.85797  1.0000
  H   H194      1.0  0.16139  0.23849  0.62330  1.0000
  H   H195      1.0  0.13175  0.21935  0.81336  1.0000
  H   H196      1.0  0.08805  0.28808  0.83098  1.0000
  C   C117      1.0  0.36728  0.29975  0.78689  1.0000
  H   H197      1.0  0.01920  0.10478  0.78063  1.0000
  C   C118      1.0  0.38508  0.25029  0.60748  1.0000
  H   H198      1.0  0.45967  0.15329  0.77406  1.0000
  H   H199      1.0  0.24503  0.27324  0.75069  1.0000
  H   H200      1.0  0.36970  0.23245  0.60079  1.0000
  C   C119      1.0  0.24393  0.28804  0.72914  1.0000
  H   H201      1.0  0.00189  0.04409  0.81805  1.0000
  H   H202      1.0  0.42447  0.02277  0.72723  1.0000
  C   C120      1.0  0.42819  0.21595  0.60160  1.0000
  H   H203      1.0  0.18988  0.06892  0.53072  1.0000
  C   C121      1.0  0.34367  0.00295  0.77960  1.0000
  C   C122      1.0  0.21165  0.06961  0.54275  1.0000
  H   H204      1.0  0.18391  0.26284  0.82420  1.0000
  H   H205      1.0  0.02580  0.18451  0.57780  1.0000
  C   C123      1.0  0.43820  0.18845  0.79887  1.0000
  C   C124      1.0  0.04630  0.22275  0.59770  1.0000
  H   H206      1.0  0.04274  0.23953  0.61709  1.0000
  C   C125      1.0  0.12685  0.23979  0.82710  1.0000
  H   H207      1.0  0.06462  0.22040  0.86869  1.0000
  C   C126      1.0  0.00334  0.05608  0.74630  1.0000
  H   H208      1.0  0.41137  0.24630  0.56406  1.0000
  C   C127      1.0  0.21038  0.00525  0.86062  1.0000
  C   C128      1.0  0.19312  0.99906  0.76066  1.0000
  H   H209      1.0  0.27066  0.99338  0.92769  1.0000
  N   N8        1.0  0.23354  0.24565  0.68787  1.0000
  C   C129      1.0  0.21017  0.23595  0.66392  1.0000
  C   C130      1.0  0.23534  0.22477  0.71671  1.0000
  C   C131      1.0  0.26288  0.24897  0.67138  1.0000
  C   C132      1.0  0.27528  0.22163  0.65395  1.0000
  C   C133      1.0  0.20461  0.25615  0.63393  1.0000
  C   C134      1.0  0.22880  0.19208  0.70977  1.0000
  C   C135      1.0  0.23737  0.17308  0.73909  1.0000
  C   C136      1.0  0.30360  0.22869  0.63565  1.0000
  H   H210      1.0  0.18900  0.23358  0.67719  1.0000
  H   H211      1.0  0.21487  0.21402  0.65376  1.0000
  H   H212      1.0  0.25717  0.22639  0.72874  1.0000
  H   H213      1.0  0.21925  0.23091  0.73618  1.0000
  H   H214      1.0  0.26251  0.26722  0.65341  1.0000
  H   H215      1.0  0.27970  0.25537  0.68976  1.0000
  H   H216      1.0  0.25976  0.21253  0.63567  1.0000
  H   H217      1.0  0.28072  0.20482  0.67251  1.0000
  H   H218      1.0  0.47468  0.19895  0.53685  1.0000
  H   H219      1.0  0.22493  0.26001  0.61976  1.0000
  H   H220      1.0  0.20500  0.18905  0.70550  1.0000
  H   H221      1.0  0.24043  0.18372  0.68784  1.0000
  H   H222      1.0  0.23189  0.15000  0.73364  1.0000
  H   H223      1.0  0.26125  0.17464  0.74370  1.0000
  H   H224      1.0  0.22536  0.17993  0.76161  1.0000
  H   H225      1.0  0.31237  0.20856  0.62404  1.0000
  H   H226      1.0  0.29963  0.24499  0.61598  1.0000
  H   H227      1.0  0.32030  0.23726  0.65304  1.0000
  C   C137      1.0  0.07785  0.23767  0.80335  1.0000
  C   C138      1.0  0.22114  0.01644  0.76646  1.0000
  C   C139      1.0  0.47655  0.00000  0.75311  1.0000
  H   H228      1.0  0.27121  0.05978  0.68101  1.0000
  H   H229      1.0  0.03943  0.21240  0.75904  1.0000
  H   H230      1.0  0.46003  0.26097  0.76115  1.0000
  C   C140      1.0  0.37050  0.00735  0.79531  1.0000
  H   H231      1.0  0.03363  0.25132  0.75777  1.0000
  H   H232      1.0  0.02129  0.18935  0.62142  1.0000
  H   H233      1.0  0.99403  0.23256  0.57216  1.0000
  H   H234      1.0  0.24047  0.01714  0.52170  1.0000
  H   H235      1.0  0.47317  0.25207  0.58288  1.0000
  H   H236      1.0  0.12880  0.26514  0.78103  1.0000
  H   H237      1.0  0.07384  0.02820  0.75763  1.0000
  H   H238      1.0  0.99390  0.03406  0.75071  1.0000
  H   H239      1.0  0.32359  0.31490  0.79576  1.0000
  H   H240      1.0  0.10695  0.04678  0.98934  1.0000
  Fe  Fe20      1.0  0.12700  0.30786  0.64652  1.0000
  H   H241      1.0  0.10909  0.31696  0.91372  1.0000
  C   C141      1.0  0.08674  0.27051  0.84986  1.0000
  C   C142      1.0  0.08731  0.21774  0.85934  1.0000
  H   H242      1.0  0.10136  0.26498  0.90122  1.0000
  C   C143      1.0  0.46588  0.17469  0.78478  1.0000
  H   H243      1.0  0.43169  0.16191  0.62891  1.0000
  H   H244      1.0  0.43498  0.16457  0.53598  1.0000
  H   H245      1.0  0.42892  0.17464  0.81874  1.0000
  H   H246      1.0  0.28958  0.02583  0.50076  1.0000
  C   C144      1.0  0.24061  0.00210  0.86427  1.0000
  C   C145      1.0  0.33686  0.29840  0.78399  1.0000
  H   H247      1.0  0.44147  0.04102  0.84870  1.0000
  H   H248      1.0  0.42164  0.19055  0.77899  1.0000
  H   H249      1.0  0.26644  0.29214  0.72025  1.0000
  C   C146      1.0  0.46223  0.05289  0.84406  1.0000
  H   H250      1.0  0.38748  0.25121  0.63473  1.0000
  C   C147      1.0  0.12943  0.30965  0.51066  1.0000
  H   H251      1.0  0.18010  0.27904  0.78397  1.0000
  C   C148      1.0  0.05078  0.02739  0.74922  1.0000
  H   H252      1.0  0.23439  0.01520  0.74365  1.0000
  H   H253      1.0  0.40801  0.19234  0.54449  1.0000
  C   C149      1.0  0.47105  0.27151  0.78247  1.0000
  H   H254      1.0  0.00629  0.22779  0.77524  1.0000
  H   H255      1.0  0.46244  0.99845  0.82099  1.0000
  C   C150      1.0  0.44415  0.15527  0.60664  1.0000
  H   H256      1.0  0.21242  0.05316  0.56279  1.0000
  C   C151      1.0  0.04428  0.23434  0.80658  1.0000
  H   H257      1.0  0.24361  0.08251  0.66256  1.0000
  H   H258      1.0  0.19070  0.22195  0.59983  1.0000
  C   C152      1.0  0.27766  0.98909  0.95351  1.0000
  C   C153      1.0  0.02119  0.20078  0.59728  1.0000
  H   H259      1.0  0.20187  0.27385  0.71090  1.0000
  H   H260      1.0  0.34935  0.00794  0.93191  1.0000
  H   H261      1.0  0.00842  0.11531  0.74075  1.0000
  H   H262      1.0  0.22448  0.29171  0.68131  1.0000
  C   C154      1.0  0.03015  0.23129  0.77258  1.0000
  H   H263      1.0  0.44138  0.10983  0.62079  1.0000
  H   H264      1.0  0.45474  0.27604  0.80209  1.0000
  H   H265      1.0  0.13577  0.28656  0.81732  1.0000
  H   H266      1.0  0.04832  0.23369  0.57342  1.0000
  H   H267      1.0  0.21476  0.09157  0.55381  1.0000
  H   H268      1.0  0.27304  0.12713  0.52058  1.0000
  H   H269      1.0  0.10145  0.21960  0.88155  1.0000
  C   C155      1.0  0.03551  0.05587  0.75838  1.0000
  H   H270      1.0  0.00452  0.08285  0.82542  1.0000
  H   H271      1.0  0.00506  0.05824  0.71898  1.0000
  C   C156      1.0  0.99968  0.10762  0.76489  1.0000
  H   H272      1.0  0.00718  0.16791  0.75835  1.0000
  H   H273      1.0  0.27165  0.09870  0.68788  1.0000
  C   C157      1.0  0.18232  0.24269  0.61032  1.0000
  H   H274      1.0  0.05812  0.16697  0.87934  1.0000
  H   H275      1.0  0.19557  0.27743  0.64196  1.0000
  H   H276      1.0  0.02089  0.15631  0.79813  1.0000
  H   H277      1.0  0.27246  0.00934  0.96759  1.0000
  H   H278      1.0  0.31769  0.00814  0.90568  1.0000
  C   C158      1.0  0.99139  0.21621  0.59220  1.0000
  C   C159      1.0  0.46954  0.19603  0.69356  1.0000
  C   C160      1.0  0.22459  0.27510  0.70121  1.0000
  H   H279      1.0  0.04771  0.07399  0.74651  1.0000
  N   N9        1.0  0.24012  0.06862  0.77868  1.0000
  C   C161      1.0  0.22940  0.09881  0.78712  1.0000
  C   C162      1.0  0.25649  0.07019  0.74645  1.0000
  C   C163      1.0  0.21421  0.04841  0.77631  1.0000
  C   C164      1.0  0.26057  0.05723  0.80474  1.0000
  C   C165      1.0  0.28664  0.07727  0.81391  1.0000
  C   C166      1.0  0.21434  0.10237  0.82118  1.0000
  H   H280      1.0  0.43125  0.21655  0.62885  1.0000
  C   C167      1.0  0.23783  0.07542  0.71512  1.0000
  C   C168      1.0  0.25730  0.07933  0.68483  1.0000
  C   C169      1.0  0.30635  0.06270  0.83939  1.0000
  C   C170      1.0  0.20781  0.13441  0.82840  1.0000
  C   C171      1.0  0.45410  0.20706  0.54806  1.0000
  H   H281      1.0  0.21311  0.10615  0.76863  1.0000
  H   H282      1.0  0.24757  0.11489  0.78554  1.0000
  H   H283      1.0  0.27290  0.08807  0.74739  1.0000
  H   H284      1.0  0.26950  0.05007  0.74225  1.0000
  H   H285      1.0  0.19753  0.05729  0.75913  1.0000
  H   H286      1.0  0.20290  0.04701  0.80048  1.0000
  H   H287      1.0  0.24839  0.05220  0.82768  1.0000
  H   H288      1.0  0.27020  0.03610  0.79675  1.0000
  H   H289      1.0  0.27899  0.09816  0.82465  1.0000
  H   H290      1.0  0.30021  0.08212  0.79197  1.0000
  H   H291      1.0  0.19324  0.09045  0.82161  1.0000
  H   H292      1.0  0.22813  0.09421  0.84159  1.0000
  H   H293      1.0  0.23332  0.00542  0.78653  1.0000
  H   H294      1.0  0.06712  0.21137  0.60310  1.0000
  H   H295      1.0  0.22321  0.05661  0.71023  1.0000
  H   H296      1.0  0.22427  0.09527  0.71759  1.0000
  C   C172      1.0  0.41475  0.24551  0.59111  1.0000
  C   C173      1.0  0.42954  0.18794  0.53312  1.0000
  H   H297      1.0  0.47042  0.11773  0.59223  1.0000
  H   H298      1.0  0.31504  0.04177  0.82969  1.0000
  H   H299      1.0  0.32515  0.07717  0.84505  1.0000
  H   H300      1.0  0.29415  0.05851  0.86256  1.0000
  H   H301      1.0  0.19580  0.13623  0.85212  1.0000
  H   H302      1.0  0.22842  0.14706  0.83046  1.0000
  H   H303      1.0  0.19411  0.14391  0.80860  1.0000
  H   H304      1.0  0.05053  0.02398  0.72210  1.0000
  H   H305      1.0  0.45156  0.22957  0.53832  1.0000
  H   H306      1.0  0.08158  0.25665  0.78706  1.0000
  C   C174      1.0  0.09600  0.31061  0.89179  1.0000
  C   C175      1.0  0.09084  0.18597  0.84664  1.0000
  C   C176      1.0  0.08146  0.16398  0.87282  1.0000
  H   H307      1.0  0.12856  0.28086  0.87477  1.0000
  H   H308      1.0  0.17692  0.24015  0.78839  1.0000
  H   H309      1.0  0.14003  0.23831  0.85009  1.0000
  C   C177      1.0  0.17208  0.26142  0.80034  1.0000
  C   C178      1.0  0.48313  0.00924  0.81366  1.0000
  H   H310      1.0  0.44286  0.21058  0.80875  1.0000
  H   H311      1.0  0.07733  0.18180  0.82446  1.0000
  H   H312      1.0  0.11394  0.18134  0.84041  1.0000
  H   H313      1.0  0.09505  0.16624  0.89537  1.0000
  C   C179      1.0  0.13120  0.30936  0.54546  1.0000
  C   C180      1.0  0.42626  0.99862  0.72692  1.0000
  H   H314      1.0  0.42831  0.15186  0.58651  1.0000
  H   H315      1.0  0.04000  0.00862  0.76151  1.0000
  H   H316      1.0  0.08423  0.14150  0.86305  1.0000
  C   C181      1.0  0.29639  0.13043  0.51950  1.0000
  H   H317      1.0  0.41114  0.19918  0.59733  1.0000
  H   H318      1.0  0.47934  0.18218  0.62201  1.0000
  H   H319      1.0  0.37564  0.27125  0.59905  1.0000
  C   C182      1.0  0.47642  0.04233  0.81209  1.0000
  H   H320      1.0  0.43432  0.99528  0.77855  1.0000
  C   C183      1.0  0.47883  0.23080  0.59427  1.0000
  H   H321      1.0  0.45754  0.31279  0.73203  1.0000
  H   H322      1.0  0.48351  0.16904  0.58104  1.0000
  H   H323      1.0  0.25698  0.06626  0.53047  1.0000
  H   H324      1.0  0.18087  0.00797  0.73934  1.0000
  H   H325      1.0  0.99844  0.99128  0.83229  1.0000
  H   H326      1.0  0.00399  0.18654  0.52976  1.0000
  H   H327      1.0  0.18203  0.01062  0.97256  1.0000
  H   H328      1.0  0.47717  0.04953  0.86529  1.0000
  H   H329      1.0  0.47865  0.23465  0.62141  1.0000
  C   C184      1.0  0.23179  0.31722  0.74119  1.0000
  H   H330      1.0  0.22354  0.00459  0.93363  1.0000
  H   H331      1.0  0.48745  0.25615  0.79251  1.0000
  H   H332      1.0  0.48058  0.15397  0.82878  1.0000
  H   H333      1.0  0.23059  0.99110  0.99302  1.0000
  H   H334      1.0  0.17039  0.00175  0.93136  1.0000
  C   C185      1.0  0.48615  0.29968  0.77184  1.0000
  C   C186      1.0  0.46415  0.32163  0.75658  1.0000
  H   H335      1.0  0.48672  0.11298  0.78679  1.0000
  H   H336      1.0  0.48565  0.11150  0.72505  1.0000
  H   H337      1.0  0.07254  0.31107  0.89869  1.0000
  H   H338      1.0  0.20925  0.31456  0.75081  1.0000
  C   C187      1.0  0.18191  0.99325  0.95343  1.0000
  H   H339      1.0  0.02889  0.09790  0.99651  1.0000
  H   H340      1.0  0.44420  0.32083  0.77223  1.0000
  C   C188      1.0  0.23320  0.03277  0.50239  1.0000
  H   H341      1.0  0.43558  0.99143  0.70297  1.0000
  H   H342      1.0  0.01661  0.98905  0.88291  1.0000
  H   H343      1.0  0.40390  0.98944  0.72931  1.0000
  H   H344      1.0  0.32048  0.98920  0.97841  1.0000
  H   H345      1.0  0.99709  0.31391  0.77315  1.0000
  H   H346      1.0  0.48608  0.98911  0.73112  1.0000
  Fe  Fe21      1.0  0.16496  0.34704  0.40121  1.0000
  S   S40       1.0  0.13649  0.38037  0.37636  1.0000
  H   H347      1.0  0.32186  0.38633  0.34317  1.0000
  Fe  Fe22      1.0  0.20829  0.34727  0.34169  1.0000
  S   S41       1.0  0.18214  0.38023  0.31323  1.0000
  H   H348      1.0  0.29223  0.38735  0.18469  1.0000
  Fe  Fe23      1.0  0.17860  0.40251  0.36267  1.0000
  S   S42       1.0  0.17996  0.45132  0.36983  1.0000
  Fe  Fe24      1.0  0.14206  0.35532  0.32931  1.0000
  H   H349      1.0  0.05552  0.52948  0.23616  1.0000
  S   S43       1.0  0.20698  0.37105  0.39061  1.0000
  Fe  Fe25      1.0  0.41452  0.34878  0.14044  1.0000
  S   S44       1.0  0.39363  0.34687  0.08864  1.0000
  Fe  Fe26      1.0  0.45617  0.36659  0.19746  1.0000
  C   C189      1.0  0.05188  0.33581  0.26592  1.0000
  H   H350      1.0  0.36246  0.50183  0.23540  1.0000
  Fe  Fe27      1.0  0.39028  0.35880  0.21086  1.0000
  S   S45       1.0  0.34971  0.37997  0.23386  1.0000
  C   C190      1.0  0.99392  0.41734  0.10311  1.0000
  S   S46       1.0  0.41571  0.38704  0.17547  1.0000
  C   C191      1.0  0.39657  0.36556  0.05000  1.0000
  C   C192      1.0  0.37804  0.35723  0.02385  1.0000
  H   H351      1.0  0.38467  0.51151  0.28380  1.0000
  C   C193      1.0  0.41651  0.38822  0.04457  1.0000
  H   H352      1.0  0.14609  0.45028  0.45760  1.0000
  H   H353      1.0  0.43093  0.39498  0.06427  1.0000
  C   C194      1.0  0.21373  0.46933  0.36518  1.0000
  C   C195      1.0  0.21522  0.49949  0.37066  1.0000
  C   C196      1.0  0.26564  0.46924  0.35294  1.0000
  C   C197      1.0  0.23898  0.45423  0.35608  1.0000
  H   H354      1.0  0.28509  0.45743  0.34610  1.0000
  H   H355      1.0  0.23802  0.43098  0.35168  1.0000
  C   C198      1.0  0.02646  0.37834  0.24453  1.0000
  C   C199      1.0  0.04904  0.39593  0.25728  1.0000
  C   C200      1.0  0.07282  0.38360  0.27440  1.0000
  C   C201      1.0  0.07443  0.35342  0.27872  1.0000
  H   H356      1.0  0.18331  0.41749  0.43415  1.0000
  C   C202      1.0  0.02800  0.34816  0.24903  1.0000
  H   H357      1.0  0.04819  0.41926  0.25382  1.0000
  H   H358      1.0  0.09002  0.39741  0.28393  1.0000
  H   H359      1.0  0.13126  0.63912  0.26688  1.0000
  H   H360      1.0  0.09890  0.36789  0.43159  1.0000
  H   H361      1.0  0.32843  0.35168  0.17622  1.0000
  C   C203      1.0  0.27405  0.36775  0.28505  1.0000
  C   C204      1.0  0.29653  0.37961  0.26540  1.0000
  C   C205      1.0  0.32175  0.36343  0.25793  1.0000
  H   H362      1.0  0.12020  0.56727  0.27813  1.0000
  H   H363      1.0  0.25489  0.38057  0.29073  1.0000
  H   H364      1.0  0.29443  0.40159  0.25616  1.0000
  H   H365      1.0  0.41607  0.47350  0.27709  1.0000
  S   S47       1.0  0.43079  0.34177  0.23554  1.0000
  Fe  Fe28      1.0  0.05659  0.61335  0.13297  1.0000
  C   C206      1.0  0.08817  0.46411  0.48151  1.0000
  S   S48       1.0  0.05400  0.61355  0.07616  1.0000
  Fe  Fe29      1.0  0.02564  0.59886  0.19908  1.0000
  S   S49       1.0  0.05591  0.62736  0.22878  1.0000
  C   C207      1.0  0.13315  0.40582  0.47033  1.0000
  C   C208      1.0  0.35132  0.46680  0.20261  1.0000
  Fe  Fe30      1.0  0.09222  0.60919  0.19774  1.0000
  S   S50       1.0  0.13686  0.59337  0.21617  1.0000
  S   S51       1.0  0.01735  0.63200  0.15961  1.0000
  S   S52       1.0  0.06252  0.57763  0.17060  1.0000
  Fe  Fe31      1.0  0.30712  0.62079  0.40470  1.0000
  S   S53       1.0  0.34019  0.59087  0.38133  1.0000
  S   S54       1.0  0.99012  0.57301  0.22602  1.0000
  Fe  Fe32      1.0  0.26858  0.62127  0.34134  1.0000
  S   S55       1.0  0.29918  0.59206  0.31309  1.0000
  S   S56       1.0  0.30782  0.64589  0.45409  1.0000
  Fe  Fe33      1.0  0.30128  0.56665  0.36045  1.0000
  S   S57       1.0  0.30124  0.51739  0.35591  1.0000
  Fe  Fe34      1.0  0.33611  0.61794  0.33533  1.0000
  S   S58       1.0  0.37594  0.63689  0.30858  1.0000
  S   S59       1.0  0.26845  0.59419  0.38751  1.0000
  H   H366      1.0  0.09133  0.43244  0.44153  1.0000
  H   H367      1.0  0.98962  0.39352  0.10336  1.0000
  H   H368      1.0  0.36782  0.55323  0.33161  1.0000
  N   N10       1.0  0.10347  0.40921  0.48596  1.0000
  H   H369      1.0  0.35622  0.44331  0.19901  1.0000
  C   C209      1.0  0.40242  0.61940  0.28308  1.0000
  C   C210      1.0  0.39803  0.59158  0.26973  1.0000
  C   C211      1.0  0.41932  0.57897  0.24892  1.0000
  C   C212      1.0  0.44516  0.59406  0.24091  1.0000
  C   C213      1.0  0.44948  0.62194  0.25415  1.0000
  C   C214      1.0  0.42828  0.63445  0.27512  1.0000
  H   H370      1.0  0.37811  0.57988  0.27518  1.0000
  H   H371      1.0  0.41566  0.55747  0.23874  1.0000
  H   H372      1.0  0.48641  0.57104  0.29063  1.0000
  C   C215      1.0  0.44209  0.42228  0.27208  1.0000
  C   C216      1.0  0.16125  0.60809  0.24613  1.0000
  C   C217      1.0  0.15304  0.63015  0.26814  1.0000
  C   C218      1.0  0.31344  0.34126  0.15826  1.0000
  C   C219      1.0  0.20130  0.62868  0.29447  1.0000
  C   C220      1.0  0.20941  0.60649  0.27263  1.0000
  C   C221      1.0  0.18960  0.59648  0.24849  1.0000
  H   H373      1.0  0.23106  0.59722  0.27413  1.0000
  H   H374      1.0  0.19630  0.57952  0.23152  1.0000
  C   C222      1.0  0.06864  0.59210  0.04306  1.0000
  C   C223      1.0  0.08132  0.56471  0.04797  1.0000
  C   C224      1.0  0.08587  0.43235  0.46835  1.0000
  H   H375      1.0  0.21249  0.38873  0.20014  1.0000
  H   H376      1.0  0.08306  0.55611  0.07268  1.0000
  H   H377      1.0  0.15664  0.43964  0.49896  1.0000
  C   C225      1.0  0.24180  0.51450  0.36725  1.0000
  C   C226      1.0  0.26721  0.49938  0.35875  1.0000
  H   H378      1.0  0.19584  0.51124  0.37798  1.0000
  H   H379      1.0  0.24269  0.53768  0.37171  1.0000
  C   C227      1.0  0.27645  0.33939  0.29736  1.0000
  C   C228      1.0  0.17306  0.64055  0.29194  1.0000
  H   H380      1.0  0.35394  0.40053  0.36336  1.0000
  C   C229      1.0  0.15412  0.43214  0.47314  1.0000
  H   H381      1.0  0.37471  0.43417  0.13741  1.0000
  C   C230      1.0  0.06258  0.34221  0.44678  1.0000
  H   H382      1.0  0.45482  0.42552  0.29507  1.0000
  C   C231      1.0  0.32418  0.33510  0.27024  1.0000
  H   H383      1.0  0.45014  0.43746  0.25282  1.0000
  H   H384      1.0  0.34447  0.59911  0.48183  1.0000
  H   H385      1.0  0.41354  0.63315  0.17330  1.0000
  C   C232      1.0  0.24836  0.37581  0.16831  1.0000
  S   S60       1.0  0.08826  0.64363  0.15857  1.0000
  C   C233      1.0  0.06659  0.54085  0.25690  1.0000
  S   S61       1.0  0.47142  0.57701  0.21476  1.0000
  H   H386      1.0  0.09607  0.50528  0.26641  1.0000
  H   H387      1.0  0.10893  0.53158  0.23707  1.0000
  H   H388      1.0  0.05673  0.62375  0.00629  1.0000
  H   H389      1.0  0.44596  0.39971  0.26323  1.0000
  H   H390      1.0  0.20345  0.64405  0.46091  1.0000
  H   H391      1.0  0.01785  0.42083  0.10502  1.0000
  C   C234      1.0  0.40372  0.45768  0.29252  1.0000
  H   H392      1.0  0.11098  0.47110  0.48559  1.0000
  C   C235      1.0  0.08748  0.38049  0.48244  1.0000
  C   C236      1.0  0.28054  0.38430  0.16076  1.0000
  H   H393      1.0  0.19016  0.34919  0.49314  1.0000
  H   H394      1.0  0.06211  0.42718  0.46967  1.0000
  H   H395      1.0  0.19413  0.40638  0.47515  1.0000
  H   H396      1.0  0.12051  0.47652  0.38143  1.0000
  N   N11       1.0  0.37226  0.46714  0.29600  1.0000
  C   C237      1.0  0.35499  0.46229  0.26479  1.0000
  C   C238      1.0  0.35761  0.45195  0.32474  1.0000
  C   C239      1.0  0.37209  0.49953  0.30297  1.0000
  C   C240      1.0  0.38457  0.50908  0.33695  1.0000
  C   C241      1.0  0.34231  0.42238  0.31757  1.0000
  C   C242      1.0  0.33405  0.40659  0.34935  1.0000
  C   C243      1.0  0.38842  0.54211  0.33855  1.0000
  H   H397      1.0  0.33195  0.46935  0.26859  1.0000
  H   H398      1.0  0.35345  0.43880  0.25869  1.0000
  H   H399      1.0  0.37337  0.44880  0.34531  1.0000
  H   H400      1.0  0.33995  0.46595  0.33516  1.0000
  H   H401      1.0  0.34935  0.50820  0.30161  1.0000
  H   H402      1.0  0.36943  0.50268  0.35708  1.0000
  H   H403      1.0  0.32183  0.42635  0.30363  1.0000
  H   H404      1.0  0.35599  0.40748  0.30280  1.0000
  H   H405      1.0  0.31990  0.42051  0.36506  1.0000
  H   H406      1.0  0.35933  0.47893  0.18074  1.0000
  H   H407      1.0  0.40608  0.54918  0.32160  1.0000
  H   H408      1.0  0.39442  0.54881  0.36400  1.0000
  C   C244      1.0  0.36660  0.47804  0.23362  1.0000
  H   H409      1.0  0.17013  0.34344  0.25160  1.0000
  H   H410      1.0  0.35407  0.38855  0.15882  1.0000
  N   N12       1.0  0.29782  0.36419  0.13842  1.0000
  H   H411      1.0  0.07489  0.50796  0.46841  1.0000
  C   C245      1.0  0.27824  0.35083  0.11247  1.0000
  C   C246      1.0  0.32058  0.38217  0.12062  1.0000
  H   H412      1.0  0.07628  0.32470  0.45757  1.0000
  H   H413      1.0  0.06730  0.56450  0.25121  1.0000
  S   S62       1.0  0.10448  0.33643  0.29874  1.0000
  C   C247      1.0  0.34024  0.40194  0.14246  1.0000
  H   H414      1.0  0.24778  0.39058  0.21946  1.0000
  H   H415      1.0  0.30925  0.34361  0.07139  1.0000
  C   C248      1.0  0.36050  0.42065  0.12129  1.0000
  H   H416      1.0  0.41487  0.45821  0.31684  1.0000
  H   H417      1.0  0.43293  0.64818  0.49495  1.0000
  C   C249      1.0  0.07417  0.48568  0.45765  1.0000
  H   H418      1.0  0.05719  0.33591  0.42101  1.0000
  H   H419      1.0  0.30994  0.39643  0.10192  1.0000
  H   H420      1.0  0.33586  0.36787  0.10672  1.0000
  S   S63       1.0  0.14595  0.32487  0.44757  1.0000
  S   S64       1.0  0.99721  0.39510  0.22279  1.0000
  H   H421      1.0  0.14438  0.38624  0.48013  1.0000
  S   S65       1.0  0.22575  0.64258  0.32484  1.0000
  H   H422      1.0  0.10079  0.52689  0.02491  1.0000
  H   H423      1.0  0.23711  0.41802  0.18981  1.0000
  H   H424      1.0  0.32725  0.41698  0.15799  1.0000
  H   H425      1.0  0.08628  0.48595  0.43394  1.0000
  H   H426      1.0  0.05101  0.47981  0.45294  1.0000
  H   H427      1.0  0.26072  0.33751  0.12373  1.0000
  C   C250      1.0  0.09750  0.52893  0.26107  1.0000
  H   H428      1.0  0.46919  0.63385  0.24828  1.0000
  H   H429      1.0  0.00237  0.50356  0.22004  1.0000
  H   H430      1.0  0.38334  0.64968  0.15188  1.0000
  C   C251      1.0  0.07915  0.37113  0.44680  1.0000
  H   H431      1.0  0.34770  0.43534  0.10512  1.0000
  H   H432      1.0  0.40613  0.49920  0.34195  1.0000
  C   C252      1.0  0.30163  0.32316  0.28974  1.0000
  C   C253      1.0  0.40946  0.42686  0.27829  1.0000
  H   H433      1.0  0.37475  0.40671  0.10573  1.0000
  H   H434      1.0  0.27898  0.40646  0.14967  1.0000
  H   H435      1.0  0.13099  0.40145  0.44354  1.0000
  H   H436      1.0  0.39824  0.42328  0.25442  1.0000
  C   C254      1.0  0.06653  0.60268  0.01052  1.0000
  H   H437      1.0  0.05355  0.53740  0.27963  1.0000
  N   N13       1.0  0.14157  0.53054  0.30107  1.0000
  H   H438      1.0  0.41381  0.64787  0.43765  1.0000
  C   C255      1.0  0.15887  0.55194  0.32165  1.0000
  C   C256      1.0  0.16014  0.52254  0.27157  1.0000
  C   C257      1.0  0.13503  0.50310  0.32035  1.0000
  C   C258      1.0  0.10558  0.50178  0.33927  1.0000
  H   H439      1.0  0.06701  0.38079  0.49731  1.0000
  C   C259      1.0  0.19108  0.51057  0.27933  1.0000
  C   C260      1.0  0.14402  0.56369  0.35320  1.0000
  C   C261      1.0  0.16311  0.58685  0.36985  1.0000
  C   C262      1.0  0.10405  0.47491  0.36140  1.0000
  H   H440      1.0  0.06512  0.38750  0.43452  1.0000
  C   C263      1.0  0.20515  0.49703  0.24877  1.0000
  S   S66       1.0  0.30530  0.64966  0.35985  1.0000
  H   H441      1.0  0.40250  0.41000  0.29612  1.0000
  H   H442      1.0  0.17955  0.54199  0.33038  1.0000
  H   H443      1.0  0.16534  0.57096  0.30630  1.0000
  H   H444      1.0  0.16284  0.54167  0.25501  1.0000
  H   H445      1.0  0.14898  0.50564  0.25636  1.0000
  H   H446      1.0  0.13517  0.48356  0.30395  1.0000
  H   H447      1.0  0.15280  0.49898  0.33840  1.0000
  H   H448      1.0  0.08709  0.50030  0.32169  1.0000
  H   H449      1.0  0.10205  0.52123  0.35491  1.0000
  C   C264      1.0  0.11449  0.54554  0.28845  1.0000
  H   H450      1.0  0.00787  0.46874  0.13207  1.0000
  H   H451      1.0  0.19030  0.49372  0.29888  1.0000
  H   H452      1.0  0.20568  0.52853  0.28760  1.0000
  H   H453      1.0  0.12265  0.57386  0.34776  1.0000
  H   H454      1.0  0.14109  0.54578  0.37121  1.0000
  H   H455      1.0  0.18485  0.57775  0.37624  1.0000
  H   H456      1.0  0.16621  0.60586  0.35333  1.0000
  H   H457      1.0  0.15247  0.59453  0.39288  1.0000
  H   H458      1.0  0.39033  0.47450  0.23021  1.0000
  H   H459      1.0  0.08204  0.47328  0.37268  1.0000
  H   H460      1.0  0.10814  0.45473  0.34689  1.0000
  C   C265      1.0  0.18449  0.42430  0.46039  1.0000
  H   H461      1.0  0.22710  0.61876  0.43994  1.0000
  C   C266      1.0  0.29335  0.33109  0.08640  1.0000
  H   H462      1.0  0.20664  0.51334  0.22863  1.0000
  H   H463      1.0  0.22752  0.48954  0.25494  1.0000
  H   H464      1.0  0.19228  0.47794  0.24015  1.0000
  H   H465      1.0  0.32733  0.46980  0.20458  1.0000
  H   H466      1.0  0.23470  0.37936  0.14604  1.0000
  C   C267      1.0  0.23577  0.39451  0.19611  1.0000
  H   H467      1.0  0.09911  0.55057  0.30875  1.0000
  C   C268      1.0  0.09135  0.54815  0.02074  1.0000
  H   H468      1.0  0.36255  0.33976  0.02756  1.0000
  H   H469      1.0  0.25930  0.33576  0.04918  1.0000
  H   H470      1.0  0.00910  0.45803  0.25225  1.0000
  H   H471      1.0  0.24257  0.64577  0.46709  1.0000
  C   C269      1.0  0.41799  0.40204  0.01342  1.0000
  H   H472      1.0  0.24593  0.35274  0.17558  1.0000
  H   H473      1.0  0.26675  0.36849  0.09882  1.0000
  S   S67       1.0  0.45721  0.33045  0.15953  1.0000
  H   H474      1.0  0.01086  0.33432  0.23935  1.0000
  C   C270      1.0  0.32250  0.63903  0.49418  1.0000
  H   H475      1.0  0.00517  0.51382  0.16073  1.0000
  H   H476      1.0  0.00726  0.56255  0.13082  1.0000
  H   H477      1.0  0.00269  0.45870  0.18954  1.0000
  H   H478      1.0  0.99119  0.48609  0.27596  1.0000
  H   H479      1.0  0.04197  0.34412  0.46100  1.0000
  H   H480      1.0  0.38452  0.64726  0.46716  1.0000
  H   H481      1.0  0.10084  0.36234  0.49235  1.0000
  H   H482      1.0  0.19906  0.44362  0.46203  1.0000
  H   H483      1.0  0.32801  0.32802  0.14222  1.0000
  C   C271      1.0  0.22502  0.64159  0.44876  1.0000
  H   H484      1.0  0.17650  0.64730  0.19176  1.0000
  C   C272      1.0  0.15046  0.32420  0.49137  1.0000
  H   H485      1.0  0.28452  0.33297  0.20008  1.0000
  H   H486      1.0  0.43362  0.41937  0.00959  1.0000
  H   H487      1.0  0.37414  0.64621  0.21196  1.0000
  S   S68       1.0  0.24854  0.32326  0.32194  1.0000
  H   H488      1.0  0.29651  0.65228  0.27911  1.0000
  C   C273      1.0  0.40120  0.65376  0.16983  1.0000
  H   H489      1.0  0.34361  0.32251  0.26513  1.0000
  H   H490      1.0  0.20069  0.32295  0.26713  1.0000
  H   H491      1.0  0.19318  0.32306  0.22352  1.0000
  C   C274      1.0  0.18302  0.32314  0.24837  1.0000
  H   H492      1.0  0.00946  0.55946  0.81458  1.0000
  C   C275      1.0  0.20218  0.63001  0.81318  1.0000
  H   H493      1.0  0.02399  0.43951  0.84076  1.0000
  S   S69       1.0  0.11911  0.35743  0.76140  1.0000
  H   H494      1.0  0.07516  0.59486  0.95862  1.0000
  Fe  Fe35      1.0  0.37729  0.40578  0.89953  1.0000
  S   S70       1.0  0.34445  0.37183  0.88373  1.0000
  S   S71       1.0  0.40269  0.41174  0.94824  1.0000
  Fe  Fe36      1.0  0.37530  0.43652  0.83121  1.0000
  S   S72       1.0  0.34266  0.40460  0.81059  1.0000
  S   S73       1.0  0.39810  0.47167  0.80041  1.0000
  Fe  Fe37      1.0  0.32076  0.40956  0.86000  1.0000
  S   S74       1.0  0.27161  0.41336  0.86391  1.0000
  Fe  Fe38      1.0  0.36865  0.36924  0.83530  1.0000
  C   C276      1.0  0.28781  0.57525  0.85498  1.0000
  S   S75       1.0  0.35161  0.44372  0.87907  1.0000
  S   S76       1.0  0.40328  0.40096  0.85254  1.0000
  C   C277      1.0  0.17566  0.33746  0.54228  1.0000
  H   H495      1.0  0.21848  0.58078  0.78233  1.0000
  H   H496      1.0  0.36489  0.59192  0.53807  1.0000
  H   H497      1.0  0.20951  0.34155  0.81117  1.0000
  H   H498      1.0  0.33995  0.49677  0.81009  1.0000
  C   C278      1.0  0.21018  0.47668  0.85748  1.0000
  C   C279      1.0  0.22459  0.45018  0.86350  1.0000
  C   C280      1.0  0.25477  0.44760  0.85839  1.0000
  C   C281      1.0  0.27051  0.47179  0.84730  1.0000
  H   H499      1.0  0.18697  0.47831  0.86155  1.0000
  H   H500      1.0  0.21229  0.43158  0.87216  1.0000
  H   H501      1.0  0.29378  0.47005  0.84335  1.0000
  C   C282      1.0  0.10526  0.39269  0.77119  1.0000
  C   C283      1.0  0.08541  0.40736  0.75094  1.0000
  C   C284      1.0  0.07563  0.43556  0.75964  1.0000
  C   C285      1.0  0.08612  0.44972  0.78815  1.0000
  C   C286      1.0  0.10587  0.43499  0.80839  1.0000
  C   C287      1.0  0.11494  0.40652  0.80022  1.0000
  H   H502      1.0  0.07761  0.39701  0.72863  1.0000
  H   H503      1.0  0.06025  0.44669  0.74387  1.0000
  H   H504      1.0  0.11389  0.44539  0.83059  1.0000
  H   H505      1.0  0.12963  0.39519  0.81657  1.0000
  C   C288      1.0  0.38492  0.51833  0.89942  1.0000
  H   H506      1.0  0.27206  0.56503  0.87233  1.0000
  H   H507      1.0  0.37873  0.38992  0.74735  1.0000
  H   H508      1.0  0.06796  0.56529  0.75251  1.0000
  C   C289      1.0  0.27957  0.64641  0.77870  1.0000
  H   H509      1.0  0.19118  0.64322  0.79386  1.0000
  Fe  Fe39      1.0  0.09930  0.51771  0.83011  1.0000
  S   S77       1.0  0.12986  0.54949  0.80558  1.0000
  S   S78       1.0  0.07379  0.48553  0.79779  1.0000
  Fe  Fe40      1.0  0.11058  0.54379  0.89958  1.0000
  S   S79       1.0  0.14293  0.57629  0.87967  1.0000
  S   S80       1.0  0.10156  0.53626  0.95480  1.0000
  Fe  Fe41      1.0  0.11056  0.58370  0.83866  1.0000
  S   S81       1.0  0.09578  0.62984  0.82503  1.0000
  Fe  Fe42      1.0  0.15976  0.53943  0.84810  1.0000
  S   S82       1.0  0.20807  0.53405  0.83663  1.0000
  S   S83       1.0  0.07707  0.55283  0.86018  1.0000
  S   S84       1.0  0.13017  0.50602  0.87089  1.0000
  Fe  Fe43      1.0  0.35961  0.62784  0.72187  1.0000
  C   C290      1.0  0.37232  0.49085  0.68655  1.0000
  S   S85       1.0  0.34012  0.59115  0.75306  1.0000
  H   H510      1.0  0.99620  0.60734  0.84750  1.0000
  S   S86       1.0  0.38555  0.32782  0.80949  1.0000
  S   S87       1.0  0.39265  0.62225  0.68195  1.0000
  C   C291      1.0  0.35682  0.55806  0.76572  1.0000
  C   C292      1.0  0.34045  0.53812  0.78448  1.0000
  C   C293      1.0  0.35282  0.51177  0.79554  1.0000
  C   C294      1.0  0.38171  0.50488  0.78765  1.0000
  C   C295      1.0  0.39803  0.52467  0.76857  1.0000
  C   C296      1.0  0.38570  0.55113  0.75768  1.0000
  H   H511      1.0  0.31804  0.54309  0.79062  1.0000
  H   H512      1.0  0.42037  0.51952  0.76227  1.0000
  H   H513      1.0  0.39859  0.56627  0.74338  1.0000
  H   H514      1.0  0.40008  0.39236  0.71010  1.0000
  C   C297      1.0  0.34563  0.63073  0.55878  1.0000
  H   H515      1.0  0.44983  0.36158  0.70919  1.0000
  C   C298      1.0  0.18234  0.46887  0.75395  1.0000
  C   C299      1.0  0.02094  0.62908  0.80865  1.0000
  H   H516      1.0  0.13648  0.38711  0.59421  1.0000
  C   C300      1.0  0.22577  0.50078  0.84588  1.0000
  C   C301      1.0  0.25600  0.49817  0.84076  1.0000
  H   H517      1.0  0.26832  0.51653  0.83169  1.0000
  H   H518      1.0  0.43326  0.55949  0.69158  1.0000
  C   C302      1.0  0.00854  0.62789  0.84359  1.0000
  H   H519      1.0  0.36617  0.49294  0.55186  1.0000
  H   H520      1.0  0.08317  0.41770  0.53306  1.0000
  H   H521      1.0  0.31154  0.53728  0.63034  1.0000
  C   C303      1.0  0.21415  0.61235  0.74296  1.0000
  H   H522      1.0  0.36516  0.36421  0.97298  1.0000
  H   H523      1.0  0.02680  0.62868  0.86163  1.0000
  C   C304      1.0  0.21425  0.58950  0.71546  1.0000
  C   C305      1.0  0.00308  0.50847  0.85033  1.0000
  H   H524      1.0  0.25186  0.59326  0.76563  1.0000
  H   H525      1.0  0.19920  0.48561  0.75953  1.0000
  H   H526      1.0  0.04743  0.50053  0.96676  1.0000
  C   C306      1.0  0.07700  0.58632  0.98335  1.0000
  H   H527      1.0  0.45423  0.40470  0.79082  1.0000
  H   H528      1.0  0.01841  0.58578  0.74772  1.0000
  H   H529      1.0  0.43329  0.57368  0.85583  1.0000
  C   C307      1.0  0.12389  0.40333  0.57974  1.0000
  H   H530      1.0  0.18295  0.40198  0.82442  1.0000
  H   H531      1.0  0.32841  0.50024  0.66939  1.0000
  H   H532      1.0  0.38168  0.50041  0.61916  1.0000
  H   H533      1.0  0.03283  0.46467  0.95929  1.0000
  H   H534      1.0  0.20299  0.56933  0.72371  1.0000
  H   H535      1.0  0.20258  0.59815  0.69359  1.0000
  H   H536      1.0  0.23697  0.58413  0.70810  1.0000
  H   H537      1.0  0.18859  0.60996  0.81626  1.0000
  H   H538      1.0  0.03259  0.46863  0.88326  1.0000
  H   H539      1.0  0.40177  0.50698  0.56339  1.0000
  H   H540      1.0  0.38002  0.52580  0.53322  1.0000
  H   H541      1.0  0.33569  0.58307  0.67959  1.0000
  H   H542      1.0  0.37771  0.45567  0.72171  1.0000
  Fe  Fe44      1.0  0.36285  0.64801  0.64886  1.0000
  C   C308      1.0  0.02473  0.60648  0.73538  1.0000
  H   H543      1.0  0.19375  0.34825  0.55438  1.0000
  H   H544      1.0  0.30219  0.60560  0.63858  1.0000
  C   C309      1.0  0.48084  0.36477  0.78744  1.0000
  H   H545      1.0  0.37828  0.55148  0.58698  1.0000
  H   H546      1.0  0.34389  0.52578  0.69765  1.0000
  C   C310      1.0  0.47089  0.49410  0.86464  1.0000
  C   C311      1.0  0.48871  0.50720  0.95805  1.0000
  C   C312      1.0  0.46186  0.46068  0.91210  1.0000
  H   H547      1.0  0.47667  0.39492  0.84614  1.0000
  H   H548      1.0  0.16763  0.42800  0.77465  1.0000
  C   C313      1.0  0.39956  0.39358  0.98720  1.0000
  H   H549      1.0  0.99422  0.37953  0.65612  1.0000
  H   H550      1.0  0.28511  0.60234  0.67847  1.0000
  C   C314      1.0  0.07441  0.58164  0.73369  1.0000
  C   C315      1.0  0.44573  0.63531  0.61076  1.0000
  H   H551      1.0  0.40744  0.57190  0.82245  1.0000
  H   H552      1.0  0.38069  0.55823  0.68171  1.0000
  H   H553      1.0  0.45836  0.54929  0.65938  1.0000
  H   H554      1.0  0.44790  0.63637  0.63801  1.0000
  H   H555      1.0  0.15054  0.48580  0.78920  1.0000
  C   C316      1.0  0.12289  0.39385  0.54359  1.0000
  C   C317      1.0  0.35141  0.61072  0.53316  1.0000
  H   H556      1.0  0.45869  0.47650  0.85152  1.0000
  H   H557      1.0  0.41391  0.49961  0.86402  1.0000
  H   H558      1.0  0.34315  0.53811  0.57457  1.0000
  H   H559      1.0  0.34342  0.45493  0.69986  1.0000
  H   H560      1.0  0.41601  0.51741  0.65655  1.0000
  H   H561      1.0  0.46950  0.61967  0.74402  1.0000
  H   H562      1.0  0.41731  0.54015  0.62108  1.0000
  H   H563      1.0  0.34380  0.49815  0.61262  1.0000
  H   H564      1.0  0.44905  0.65154  0.54895  1.0000
  H   H565      1.0  0.39026  0.50281  0.69909  1.0000
  N   N14       1.0  0.21395  0.42289  0.76455  1.0000
  C   C318      1.0  0.18797  0.44105  0.77464  1.0000
  C   C319      1.0  0.21938  0.39904  0.78953  1.0000
  C   C320      1.0  0.24027  0.44282  0.76434  1.0000
  C   C321      1.0  0.21046  0.41025  0.73034  1.0000
  C   C322      1.0  0.18302  0.39129  0.72398  1.0000
  H   H566      1.0  0.06290  0.47831  0.93460  1.0000
  C   C323      1.0  0.27048  0.42794  0.76014  1.0000
  C   C324      1.0  0.19244  0.38574  0.80711  1.0000
  C   C325      1.0  0.20087  0.35904  0.82740  1.0000
  H   H567      1.0  0.19098  0.61739  0.74843  1.0000
  H   H568      1.0  0.02078  0.52950  0.78850  1.0000
  C   C326      1.0  0.29485  0.45069  0.75865  1.0000
  H   H569      1.0  0.19061  0.44840  0.80066  1.0000
  N   N15       1.0  0.47477  0.35275  0.75334  1.0000
  H   H570      1.0  0.23231  0.38104  0.77832  1.0000
  H   H571      1.0  0.23302  0.40746  0.81012  1.0000
  H   H572      1.0  0.24113  0.45565  0.78772  1.0000
  H   H573      1.0  0.23849  0.45910  0.74417  1.0000
  H   H574      1.0  0.21094  0.42781  0.71152  1.0000
  H   H575      1.0  0.22933  0.39608  0.72419  1.0000
  N   N16       1.0  0.46628  0.49196  0.90165  1.0000
  C   C327      1.0  0.45165  0.36965  0.73508  1.0000
  H   H576      1.0  0.09828  0.58544  0.73591  1.0000
  H   H577      1.0  0.99765  0.34491  0.63549  1.0000
  H   H578      1.0  0.27150  0.41502  0.73705  1.0000
  H   H579      1.0  0.27536  0.41327  0.78116  1.0000
  C   C328      1.0  0.44351  0.60167  0.81384  1.0000
  H   H580      1.0  0.17523  0.37914  0.78961  1.0000
  C   C329      1.0  0.33984  0.61473  0.50116  1.0000
  C   C330      1.0  0.48923  0.44101  0.91258  1.0000
  H   H581      1.0  0.47407  0.61133  0.85163  1.0000
  H   H582      1.0  0.19994  0.36949  0.67997  1.0000
  H   H583      1.0  0.18259  0.46413  0.72716  1.0000
  H   H584      1.0  0.18132  0.35057  0.84042  1.0000
  H   H585      1.0  0.44091  0.60035  0.78679  1.0000
  H   H586      1.0  0.29564  0.46358  0.78184  1.0000
  H   H587      1.0  0.31617  0.43960  0.75552  1.0000
  H   H588      1.0  0.29156  0.46569  0.73755  1.0000
  H   H589      1.0  0.38129  0.47784  0.66590  1.0000
  H   H590      1.0  0.23149  0.59456  0.84609  1.0000
  C   C331      1.0  0.18071  0.38256  0.68765  1.0000
  C   C332      1.0  0.43650  0.55871  0.66443  1.0000
  H   H591      1.0  0.25673  0.62394  0.84866  1.0000
  H   H592      1.0  0.30852  0.55558  0.68813  1.0000
  H   H593      1.0  0.33480  0.56685  0.61950  1.0000
  C   C333      1.0  0.15277  0.48228  0.76218  1.0000
  H   H594      1.0  0.45561  0.64950  0.78241  1.0000
  C   C334      1.0  0.27220  0.58490  0.82356  1.0000
  H   H595      1.0  0.22494  0.63220  0.73326  1.0000
  C   C335      1.0  0.10661  0.65364  0.79265  1.0000
  C   C336      1.0  0.41298  0.54001  0.64800  1.0000
  H   H596      1.0  0.46602  0.35456  0.80597  1.0000
  H   H597      1.0  0.47981  0.58397  0.75838  1.0000
  H   H598      1.0  0.00793  0.52798  0.86573  1.0000
  H   H599      1.0  0.02472  0.50145  0.84070  1.0000
  C   C337      1.0  0.31808  0.56957  0.66864  1.0000
  H   H600      1.0  0.38962  0.54128  0.89258  1.0000
  H   H601      1.0  0.29481  0.63955  0.79842  1.0000
  C   C338      1.0  0.32810  0.65488  0.55188  1.0000
  H   H602      1.0  0.15050  0.50362  0.74963  1.0000
  C   C339      1.0  0.38183  0.55191  0.65519  1.0000
  H   H603      1.0  0.13497  0.46780  0.75342  1.0000
  H   H604      1.0  0.36545  0.51099  0.88530  1.0000
  H   H605      1.0  0.01058  0.41200  0.79101  1.0000
  C   C340      1.0  0.32993  0.55103  0.63954  1.0000
  C   C341      1.0  0.00448  0.44666  0.82679  1.0000
  C   C342      1.0  0.48151  0.41040  0.92464  1.0000
  H   H606      1.0  0.02151  0.60242  0.70848  1.0000
  C   C343      1.0  0.42058  0.36822  0.75014  1.0000
  C   C344      1.0  0.19960  0.64783  0.84574  1.0000
  C   C345      1.0  0.99306  0.42042  0.80741  1.0000
  N   N17       1.0  0.23279  0.62191  0.80256  1.0000
  H   H607      1.0  0.28877  0.59348  0.80636  1.0000
  C   C346      1.0  0.35988  0.46937  0.71163  1.0000
  H   H608      1.0  0.15414  0.63649  0.85474  1.0000
  C   C347      1.0  0.99645  0.62688  0.78256  1.0000
  H   H609      1.0  0.06413  0.61822  0.76412  1.0000
  C   C348      1.0  0.29374  0.58987  0.65709  1.0000
  H   H610      1.0  0.34960  0.48120  0.73251  1.0000
  H   H611      1.0  0.37974  0.51710  0.92614  1.0000
  H   H612      1.0  0.10151  0.40454  0.59017  1.0000
  C   C349      1.0  0.01194  0.47482  0.89592  1.0000
  H   H613      1.0  0.28049  0.63063  0.75799  1.0000
  H   H614      1.0  0.16080  0.36912  0.68386  1.0000
  C   C350      1.0  0.04223  0.48426  0.94726  1.0000
  H   H615      1.0  0.42132  0.36974  0.77739  1.0000
  C   C351      1.0  0.41084  0.49874  0.89109  1.0000
  C   C352      1.0  0.05822  0.61031  0.73936  1.0000
  H   H616      1.0  0.03341  0.64968  0.80653  1.0000
  H   H617      1.0  0.43610  0.58119  0.65445  1.0000
  H   H618      1.0  0.48516  0.48508  0.96826  1.0000
  C   C353      1.0  0.00165  0.54067  0.79966  1.0000
  H   H619      1.0  0.42997  0.61774  0.60443  1.0000
  H   H620      1.0  0.18436  0.37079  0.73825  1.0000
  C   C354      1.0  0.24841  0.64960  0.79293  1.0000
  C   C355      1.0  0.23012  0.60086  0.77403  1.0000
  H   H621      1.0  0.29855  0.59411  0.86719  1.0000
  H   H622      1.0  0.13643  0.62402  0.76914  1.0000
  H   H623      1.0  0.17896  0.40216  0.67177  1.0000
  H   H624      1.0  0.03126  0.51675  0.91166  1.0000
  H   H625      1.0  0.38037  0.57276  0.64129  1.0000
  H   H626      1.0  0.14574  0.39216  0.53485  1.0000
  C   C356      1.0  0.43102  0.57366  0.82857  1.0000
  C   C357      1.0  0.36506  0.53141  0.58356  1.0000
  H   H627      1.0  0.45773  0.39292  0.73276  1.0000
  H   H628      1.0  0.16263  0.40296  0.73030  1.0000
  C   C358      1.0  0.34871  0.51269  0.67516  1.0000
  N   N18       1.0  0.00540  0.63124  0.74710  1.0000
  C   C359      1.0  0.36194  0.51406  0.61626  1.0000
  H   H629      1.0  0.41006  0.34718  0.74337  1.0000
  H   H630      1.0  0.43326  0.50625  0.93660  1.0000
  H   H631      1.0  0.03590  0.61026  0.80609  1.0000
  H   H632      1.0  0.44570  0.44967  0.89574  1.0000
  H   H633      1.0  0.11585  0.43744  0.52689  1.0000
  H   H634      1.0  0.26259  0.56514  0.81200  1.0000
  H   H635      1.0  0.40486  0.47613  0.89796  1.0000
  C   C360      1.0  0.37914  0.51303  0.55644  1.0000
  H   H636      1.0  0.44233  0.55434  0.81812  1.0000
  C   C361      1.0  0.17368  0.33807  0.50748  1.0000
  C   C362      1.0  0.43871  0.50848  0.90999  1.0000
  S   S88       1.0  0.36117  0.62442  0.59856  1.0000
  N   N19       1.0  0.35638  0.53234  0.64661  1.0000
  H   H637      1.0  0.27552  0.57720  0.64604  1.0000
  C   C363      1.0  0.47747  0.39817  0.79250  1.0000
  H   H638      1.0  0.06974  0.57290  0.70867  1.0000
  C   C364      1.0  0.10553  0.41595  0.52239  1.0000
  H   H639      1.0  0.21765  0.36496  0.84608  1.0000
  H   H640      1.0  0.30481  0.55890  0.84878  1.0000
  H   H641      1.0  0.13478  0.42485  0.58231  1.0000
  C   C365      1.0  0.37948  0.37108  0.99274  1.0000
  H   H642      1.0  0.44196  0.53224  0.90554  1.0000
  C   C366      1.0  0.24771  0.60727  0.83142  1.0000
  H   H643      1.0  0.46149  0.51482  0.85512  1.0000
  S   S89       1.0  0.09044  0.33520  0.66745  1.0000
  H   H644      1.0  0.11269  0.37195  0.54296  1.0000
  H   H645      1.0  0.42980  0.62007  0.82269  1.0000
  C   C367      1.0  0.40114  0.39276  0.73745  1.0000
  H   H646      1.0  0.06650  0.62641  0.72116  1.0000
  H   H647      1.0  0.01148  0.46318  0.80852  1.0000
  H   H648      1.0  0.07645  0.46594  0.50544  1.0000
  H   H649      1.0  0.45185  0.45967  0.93714  1.0000
  H   H650      1.0  0.40957  0.41423  0.74595  1.0000
  C   C368      1.0  0.47573  0.60650  0.82474  1.0000
  H   H651      1.0  0.47046  0.52143  0.96598  1.0000
  H   H652      1.0  0.00143  0.50483  0.93718  1.0000
  H   H653      1.0  0.46746  0.63002  0.60023  1.0000
  C   C369      1.0  0.08937  0.55879  0.98823  1.0000
  Fe  Fe45      1.0  0.10969  0.32716  0.71763  1.0000
  C   C370      1.0  0.15435  0.32331  0.56157  1.0000
  S   S90       1.0  0.15765  0.32400  0.60549  1.0000
  C   C371      1.0  0.12667  0.64544  0.76832  1.0000
  H   H654      1.0  0.47316  0.41121  0.95036  1.0000
  S   S91       1.0  0.32849  0.65175  0.68847  1.0000
  H   H655      1.0  0.00450  0.45458  0.90848  1.0000
  H   H656      1.0  0.46456  0.40033  0.90864  1.0000
  H   H657      1.0  0.23157  0.33334  0.72081  1.0000
  H   H658      1.0  0.48375  0.43081  0.83043  1.0000
  C   C372      1.0  0.02061  0.49741  0.92281  1.0000
  H   H659      1.0  0.20740  0.63499  0.86714  1.0000
  N   N20       1.0  0.98958  0.48479  0.87106  1.0000
  H   H660      1.0  0.41104  0.64978  0.55590  1.0000
  H   H661      1.0  0.99401  0.64680  0.84826  1.0000
  H   H662      1.0  0.48758  0.58536  0.82272  1.0000
  C   C373      1.0  0.48816  0.60546  0.75008  1.0000
  C   C374      1.0  0.48824  0.40733  0.82662  1.0000
  H   H663      1.0  0.10004  0.32685  0.87201  1.0000
  H   H664      1.0  0.24580  0.32584  0.76135  1.0000
  Fe  Fe46      1.0  0.16701  0.83519  0.39897  1.0000
  S   S92       1.0  0.13558  0.86834  0.37892  1.0000
  S   S93       1.0  0.16034  0.80584  0.44449  1.0000
  Fe  Fe47      1.0  0.20511  0.83817  0.33521  1.0000
  S   S94       1.0  0.17563  0.87094  0.31085  1.0000
  S   S95       1.0  0.24477  0.81519  0.31270  1.0000
  Fe  Fe48      1.0  0.17579  0.89202  0.36118  1.0000
  S   S96       1.0  0.17760  0.94109  0.36640  1.0000
  Fe  Fe49      1.0  0.13760  0.84478  0.33039  1.0000
  S   S97       1.0  0.09660  0.82638  0.30505  1.0000
  S   S98       1.0  0.20726  0.86065  0.38469  1.0000
  S   S99       1.0  0.16725  0.81027  0.35103  1.0000
  S   S100      1.0  0.04449  0.70710  0.20038  1.0000
  Fe  Fe50      1.0  0.41706  0.85152  0.13434  1.0000
  S   S101      1.0  0.38449  0.82234  0.15948  1.0000
  S   S102      1.0  0.42234  0.85260  0.07792  1.0000
  Fe  Fe51      1.0  0.44814  0.86577  0.20088  1.0000
  S   S103      1.0  0.41699  0.83815  0.23025  1.0000
  H   H665      1.0  0.07944  0.92195  0.45485  1.0000
  Fe  Fe52      1.0  0.42259  0.80592  0.18899  1.0000
  S   S104      1.0  0.42735  0.75781  0.19914  1.0000
  Fe  Fe53      1.0  0.38155  0.85704  0.19856  1.0000
  S   S105      1.0  0.33805  0.87515  0.21679  1.0000
  S   S106      1.0  0.45558  0.83232  0.16146  1.0000
  S   S107      1.0  0.41224  0.88764  0.17178  1.0000
  C   C375      1.0  0.40039  0.86803  0.04595  1.0000
  H   H666      1.0  0.45481  0.68751  0.10432  1.0000
  H   H667      1.0  0.27534  0.67655  0.25345  1.0000
  C   C376      1.0  0.37611  0.88557  0.05257  1.0000
  H   H668      1.0  0.20635  0.69658  0.44801  1.0000
  H   H669      1.0  0.36999  0.88997  0.07785  1.0000
  C   C377      1.0  0.46174  0.74180  0.19262  1.0000
  N   N21       1.0  0.22402  0.71749  0.40461  1.0000
  C   C378      1.0  0.26563  0.98849  0.36350  1.0000
  C   C379      1.0  0.01030  0.72349  0.19396  1.0000
  H   H670      1.0  0.47110  0.73996  0.26305  1.0000
  C   C380      1.0  0.46439  0.71143  0.19432  1.0000
  C   C381      1.0  0.37223  0.69317  0.19955  1.0000
  H   H671      1.0  0.02449  0.76549  0.21186  1.0000
  N   N22       1.0  0.48829  0.97486  0.15853  1.0000
  H   H672      1.0  0.44564  0.69828  0.20047  1.0000
  H   H673      1.0  0.32933  0.69321  0.29454  1.0000
  H   H674      1.0  0.25467  0.79504  0.47484  1.0000
  C   C382      1.0  0.21174  0.95872  0.36381  1.0000
  H   H675      1.0  0.36510  0.97124  0.32489  1.0000
  C   C383      1.0  0.26454  0.95829  0.36855  1.0000
  C   C384      1.0  0.23776  0.94335  0.36813  1.0000
  H   H676      1.0  0.28446  0.94637  0.37292  1.0000
  H   H677      1.0  0.23717  0.92007  0.37212  1.0000
  C   C385      1.0  0.02392  0.87161  0.24460  1.0000
  C   C386      1.0  0.04783  0.88780  0.25659  1.0000
  C   C387      1.0  0.07011  0.87443  0.27528  1.0000
  C   C388      1.0  0.06886  0.84458  0.28211  1.0000
  C   C389      1.0  0.04491  0.82838  0.27019  1.0000
  C   C390      1.0  0.02255  0.84177  0.25163  1.0000
  H   H678      1.0  0.04918  0.91086  0.25136  1.0000
  H   H679      1.0  0.08834  0.88722  0.28421  1.0000
  H   H680      1.0  0.04368  0.80527  0.27519  1.0000
  H   H681      1.0  0.11792  0.91593  0.46109  1.0000
  C   C391      1.0  0.27062  0.83230  0.28623  1.0000
  C   C392      1.0  0.26612  0.86028  0.27361  1.0000
  C   C393      1.0  0.28679  0.87283  0.25211  1.0000
  C   C394      1.0  0.31240  0.85781  0.24328  1.0000
  C   C395      1.0  0.31703  0.82992  0.25606  1.0000
  C   C396      1.0  0.29615  0.81719  0.27722  1.0000
  H   H682      1.0  0.24659  0.87216  0.28022  1.0000
  H   H683      1.0  0.28292  0.89437  0.24233  1.0000
  H   H684      1.0  0.33667  0.81816  0.24963  1.0000
  H   H685      1.0  0.29989  0.79558  0.28678  1.0000
  C   C397      1.0  0.00657  0.77634  0.10977  1.0000
  H   H686      1.0  0.17235  0.71288  0.31890  1.0000
  C   C398      1.0  0.28757  0.74058  0.34591  1.0000
  H   H687      1.0  0.35948  0.94010  0.25172  1.0000
  H   H688      1.0  0.08358  0.82002  0.47622  1.0000
  N   N23       1.0  0.13323  0.73828  0.21915  1.0000
  C   C399      1.0  0.11311  0.73670  0.18979  1.0000
  C   C400      1.0  0.11666  0.72783  0.24908  1.0000
  C   C401      1.0  0.14340  0.76932  0.22339  1.0000
  C   C402      1.0  0.15959  0.71900  0.21438  1.0000
  C   C403      1.0  0.15333  0.68732  0.20283  1.0000
  C   C404      1.0  0.12663  0.74491  0.15602  1.0000
  C   C405      1.0  0.16266  0.77539  0.25412  1.0000
  C   C406      1.0  0.09199  0.74820  0.26177  1.0000
  C   C407      1.0  0.07599  0.73467  0.29103  1.0000
  H   H689      1.0  0.21658  0.78540  0.47514  1.0000
  C   C408      1.0  0.10535  0.73804  0.12799  1.0000
  C   C409      1.0  0.17122  0.80752  0.25601  1.0000
  H   H690      1.0  0.09414  0.75146  0.19322  1.0000
  H   H691      1.0  0.10351  0.71452  0.18760  1.0000
  H   H692      1.0  0.10630  0.70633  0.24388  1.0000
  H   H693      1.0  0.13178  0.72381  0.27003  1.0000
  H   H694      1.0  0.12447  0.78454  0.22384  1.0000
  H   H695      1.0  0.15662  0.77614  0.20174  1.0000
  H   H696      1.0  0.17516  0.72894  0.19658  1.0000
  H   H697      1.0  0.17204  0.71721  0.23786  1.0000
  H   H698      1.0  0.14325  0.68691  0.17797  1.0000
  C   C410      1.0  0.00645  0.75300  0.20193  1.0000
  H   H699      1.0  0.13145  0.76861  0.15516  1.0000
  H   H700      1.0  0.14707  0.73282  0.15107  1.0000
  H   H701      1.0  0.18316  0.76259  0.25308  1.0000
  H   H702      1.0  0.15109  0.76991  0.27727  1.0000
  H   H703      1.0  0.10085  0.76944  0.27014  1.0000
  H   H704      1.0  0.07554  0.75247  0.24239  1.0000
  H   H705      1.0  0.05888  0.74993  0.29986  1.0000
  H   H706      1.0  0.06530  0.71393  0.28351  1.0000
  H   H707      1.0  0.09137  0.73050  0.31163  1.0000
  H   H708      1.0  0.30251  0.74827  0.36569  1.0000
  H   H709      1.0  0.08571  0.77422  0.43396  1.0000
  C   C411      1.0  0.31639  0.69499  0.27150  1.0000
  H   H710      1.0  0.08445  0.74986  0.13162  1.0000
  H   H711      1.0  0.11499  0.74479  0.10408  1.0000
  H   H712      1.0  0.10078  0.71424  0.12690  1.0000
  H   H713      1.0  0.15154  0.82139  0.25908  1.0000
  H   H714      1.0  0.18578  0.81108  0.27752  1.0000
  H   H715      1.0  0.18321  0.81429  0.23350  1.0000
  H   H716      1.0  0.00891  0.80405  0.15369  1.0000
  H   H717      1.0  0.09751  0.78114  0.35976  1.0000
  H   H718      1.0  0.30503  0.72386  0.20304  1.0000
  C   C412      1.0  0.04185  0.79724  0.47822  1.0000
  H   H719      1.0  0.29010  0.94068  0.06356  1.0000
  C   C413      1.0  0.35985  0.89776  0.02638  1.0000
  H   H720      1.0  0.03202  0.86049  0.37668  1.0000
  H   H721      1.0  0.20544  0.69393  0.36307  1.0000
  H   H722      1.0  0.26547  0.97741  0.29457  1.0000
  H   H723      1.0  0.19698  0.67987  0.18299  1.0000
  H   H724      1.0  0.24269  0.92113  0.01452  1.0000
  C   C414      1.0  0.47901  0.72744  0.09206  1.0000
  H   H725      1.0  0.38360  0.96777  0.28560  1.0000
  H   H726      1.0  0.45651  0.94001  0.15312  1.0000
  H   H727      1.0  0.29454  0.71861  0.33761  1.0000
  H   H728      1.0  0.46167  0.89190  0.12118  1.0000
  H   H729      1.0  0.30825  0.71755  0.26876  1.0000
  C   C415      1.0  0.44159  0.98419  0.23908  1.0000
  H   H730      1.0  0.35637  0.92623  0.30811  1.0000
  H   H731      1.0  0.19802  0.75007  0.35214  1.0000
  H   H732      1.0  0.08488  0.82708  0.38747  1.0000
  C   C416      1.0  0.18264  0.73530  0.36488  1.0000
  H   H733      1.0  0.06214  0.96213  0.16766  1.0000
  H   H734      1.0  0.47191  0.75599  0.30388  1.0000
  H   H735      1.0  0.24765  0.74245  0.46508  1.0000
  H   H736      1.0  0.00455  0.75569  0.12384  1.0000
  C   C417      1.0  0.48058  0.94332  0.15154  1.0000
  H   H737      1.0  0.13840  0.67606  0.22014  1.0000
  H   H738      1.0  0.05819  0.77763  0.40206  1.0000
  C   C418      1.0  0.27543  0.92431  0.05194  1.0000
  C   C419      1.0  0.19852  0.70983  0.38237  1.0000
  H   H739      1.0  0.28922  0.75583  0.32480  1.0000
  S   S108      1.0  0.48425  0.89158  0.22693  1.0000
  H   H740      1.0  0.04085  0.82364  0.36495  1.0000
  H   H741      1.0  0.40091  0.74246  0.33043  1.0000
  H   H742      1.0  0.38532  0.75230  0.27372  1.0000
  C   C420      1.0  0.05926  0.98244  0.15331  1.0000
  H   H743      1.0  0.32036  0.68012  0.22083  1.0000
  H   H744      1.0  0.11316  0.86474  0.44464  1.0000
  H   H745      1.0  0.47113  0.74348  0.03347  1.0000
  C   C421      1.0  0.29695  0.98089  0.25332  1.0000
  C   C422      1.0  0.06062  0.82399  0.46822  1.0000
  C   C423      1.0  0.33520  0.68514  0.24182  1.0000
  C   C424      1.0  0.23630  0.78720  0.45932  1.0000
  H   H746      1.0  0.22811  0.93947  0.47938  1.0000
  N   N24       1.0  0.45618  0.75006  0.08382  1.0000
  H   H747      1.0  0.99939  0.89314  0.13831  1.0000
  H   H748      1.0  0.36661  0.74982  0.21529  1.0000
  H   H749      1.0  0.05239  0.84185  0.48442  1.0000
  C   C425      1.0  0.21909  0.74661  0.42130  1.0000
  C   C426      1.0  0.22567  0.69470  0.43140  1.0000
  C   C427      1.0  0.25232  0.71668  0.38567  1.0000
  C   C428      1.0  0.25613  0.73990  0.35842  1.0000
  H   H750      1.0  0.48758  0.83332  0.07517  1.0000
  H   H751      1.0  0.48520  0.72902  0.11858  1.0000
  H   H752      1.0  0.33250  0.73109  0.17220  1.0000
  C   C429      1.0  0.25664  0.93836  0.02524  1.0000
  H   H753      1.0  0.00709  0.95915  0.21095  1.0000
  H   H754      1.0  0.19851  0.74592  0.43600  1.0000
  H   H755      1.0  0.21559  0.76426  0.40312  1.0000
  H   H756      1.0  0.33271  0.97986  0.19873  1.0000
  H   H757      1.0  0.01838  0.80336  0.47827  1.0000
  H   H758      1.0  0.27124  0.71800  0.40285  1.0000
  H   H759      1.0  0.25085  0.76215  0.36721  1.0000
  H   H760      1.0  0.24047  0.94139  0.43712  1.0000
  H   H761      1.0  0.46805  0.77881  0.12387  1.0000
  C   C430      1.0  0.35126  0.97082  0.21296  1.0000
  H   H762      1.0  0.20211  0.93848  0.44597  1.0000
  C   C431      1.0  0.46729  0.77898  0.09646  1.0000
  C   C432      1.0  0.00804  0.96904  0.13926  1.0000
  H   H763      1.0  0.04723  0.87843  0.43994  1.0000
  H   H764      1.0  0.99873  0.72292  0.08386  1.0000
  C   C433      1.0  0.99522  0.83264  0.36918  1.0000
  H   H765      1.0  0.27679  0.68216  0.29730  1.0000
  C   C434      1.0  0.46071  0.96793  0.21425  1.0000
  H   H766      1.0  0.39332  0.68062  0.44575  1.0000
  H   H767      1.0  0.30893  0.95732  0.31831  1.0000
  C   C435      1.0  0.14852  0.81339  0.48573  1.0000
  C   C436      1.0  0.22304  0.94817  0.45451  1.0000
  C   C437      1.0  0.08034  0.78435  0.40988  1.0000
  H   H768      1.0  0.10295  0.91379  0.42014  1.0000
  H   H769      1.0  0.00118  0.66643  0.24559  1.0000
  H   H770      1.0  0.07052  0.87280  0.40535  1.0000
  H   H771      1.0  0.26455  0.76024  0.43032  1.0000
  H   H772      1.0  0.18106  0.69857  0.39666  1.0000
  H   H773      1.0  0.17027  0.74827  0.38336  1.0000
  H   H774      1.0  0.10499  0.82187  0.42371  1.0000
  H   H775      1.0  0.28466  0.97339  0.01241  1.0000
  H   H776      1.0  0.37693  0.96668  0.16815  1.0000
  H   H777      1.0  0.08964  0.87323  0.47851  1.0000
  H   H778      1.0  0.03616  0.93136  0.12935  1.0000
  C   C438      1.0  0.31352  0.94579  0.29473  1.0000
  H   H779      1.0  0.43711  0.96992  0.26057  1.0000
  H   H780      1.0  0.23219  0.80357  0.43971  1.0000
  H   H781      1.0  0.14501  0.70875  0.35088  1.0000
  H   H782      1.0  0.04448  0.77854  0.46129  1.0000
  C   C439      1.0  0.45098  0.74999  0.04697  1.0000
  C   C440      1.0  0.33375  0.91954  0.30250  1.0000
  C   C441      1.0  0.32231  0.90193  0.33171  1.0000
  C   C442      1.0  0.18153  0.66968  0.20063  1.0000
  H   H783      1.0  0.43458  0.73300  0.04040  1.0000
  C   C443      1.0  0.28969  0.67525  0.27546  1.0000
  H   H784      1.0  0.16650  0.65765  0.30875  1.0000
  H   H785      1.0  0.28878  0.90646  0.04119  1.0000
  H   H786      1.0  0.21041  0.65671  0.40171  1.0000
  H   H787      1.0  0.29243  0.93558  0.28714  1.0000
  H   H788      1.0  0.28527  0.96438  0.23794  1.0000
  C   C444      1.0  0.38877  0.66374  0.20296  1.0000
  H   H789      1.0  0.21226  0.98844  0.43117  1.0000
  H   H790      1.0  0.02066  0.77264  0.08802  1.0000
  H   H791      1.0  0.20381  0.98659  0.47464  1.0000
  H   H792      1.0  0.43347  0.74040  0.12916  1.0000
  C   C445      1.0  0.16076  0.72408  0.33937  1.0000
  H   H793      1.0  0.19207  0.66803  0.22523  1.0000
  H   H794      1.0  0.12449  0.77707  0.39201  1.0000
  H   H795      1.0  0.26126  0.98341  0.48270  1.0000
  H   H796      1.0  0.33461  0.90459  0.28106  1.0000
  Fe  Fe54      1.0  0.04955  0.65934  0.18760  1.0000
  H   H797      1.0  0.33579  0.88204  0.33486  1.0000
  H   H798      1.0  0.32361  0.91503  0.35472  1.0000
  H   H799      1.0  0.45951  0.79504  0.03058  1.0000
  H   H800      1.0  0.09936  0.74792  0.38325  1.0000
  H   H801      1.0  0.35499  0.68945  0.18071  1.0000
  H   H802      1.0  0.40466  0.71193  0.24447  1.0000
  C   C446      1.0  0.22777  0.66248  0.41963  1.0000
  H   H803      1.0  0.38773  0.70916  0.18853  1.0000
  C   C447      1.0  0.46641  0.98678  0.18303  1.0000
  H   H804      1.0  0.45204  0.79691  0.09048  1.0000
  H   H805      1.0  0.02532  0.78951  0.00192  1.0000
  H   H806      1.0  0.25487  0.69529  0.37300  1.0000
  C   C448      1.0  0.42871  0.74204  0.10229  1.0000
  H   H807      1.0  0.99353  0.83859  0.34269  1.0000
  N   N25       1.0  0.32367  0.96734  0.26889  1.0000
  H   H808      1.0  0.29935  0.89505  0.32746  1.0000
  C   C449      1.0  0.03006  0.82876  0.41776  1.0000
  N   N26       1.0  0.35924  0.70549  0.23093  1.0000
  C   C450      1.0  0.40211  0.76237  0.09787  1.0000
  C   C451      1.0  0.37687  0.75303  0.12017  1.0000
  C   C452      1.0  0.42430  0.66872  0.48441  1.0000
  C   C453      1.0  0.24390  0.75758  0.44427  1.0000
  H   H809      1.0  0.24518  0.69816  0.44726  1.0000
  H   H810      1.0  0.33943  0.74662  0.24568  1.0000
  N   N27       1.0  0.06001  0.83336  0.43243  1.0000
  H   H811      1.0  0.42073  0.72021  0.09453  1.0000
  C   C454      1.0  0.22035  0.98137  0.45567  1.0000
  C   C455      1.0  0.02238  0.79833  0.13189  1.0000
  H   H812      1.0  0.38619  0.68548  0.26831  1.0000
  C   C456      1.0  0.02659  0.83725  0.38089  1.0000
  H   H813      1.0  0.02734  0.81856  0.11800  1.0000
  C   C457      1.0  0.09856  0.90904  0.44653  1.0000
  H   H814      1.0  0.42485  0.72388  0.30200  1.0000
  H   H815      1.0  0.14836  0.74273  0.32912  1.0000
  C   C458      1.0  0.09309  0.87649  0.45170  1.0000
  C   C459      1.0  0.08324  0.81785  0.41275  1.0000
  H   H816      1.0  0.00441  0.82897  0.24255  1.0000
  H   H817      1.0  0.40752  0.78529  0.10392  1.0000
  H   H818      1.0  0.39397  0.76101  0.07217  1.0000
  H   H819      1.0  0.38331  0.75450  0.14650  1.0000
  H   H820      1.0  0.35794  0.76771  0.11622  1.0000
  H   H821      1.0  0.37000  0.73035  0.11449  1.0000
  H   H822      1.0  0.15267  0.85999  0.48297  1.0000
  H   H823      1.0  0.35844  0.73108  0.29502  1.0000
  H   H824      1.0  0.24923  0.65840  0.40780  1.0000
  H   H825      1.0  0.41635  0.67037  0.15967  1.0000
  H   H826      1.0  0.34143  0.91159  0.03191  1.0000
  H   H827      1.0  0.30244  0.77635  0.21664  1.0000
  C   C460      1.0  0.06646  0.86572  0.43119  1.0000
  H   H828      1.0  0.33124  0.78412  0.18740  1.0000
  C   C461      1.0  0.10176  0.77196  0.38461  1.0000
  H   H829      1.0  0.02307  0.80569  0.41956  1.0000
  H   H830      1.0  0.34440  0.66368  0.24911  1.0000
  H   H831      1.0  0.04320  0.78881  0.14078  1.0000
  H   H832      1.0  0.29659  0.77030  0.17327  1.0000
  H   H833      1.0  0.39719  0.70369  0.32417  1.0000
  C   C462      1.0  0.99219  0.91601  0.13482  1.0000
  C   C463      1.0  0.34814  0.73571  0.22335  1.0000
  C   C464      1.0  0.38330  0.70706  0.25645  1.0000
  H   H834      1.0  0.24193  0.73443  0.33710  1.0000
  H   H835      1.0  0.46326  0.77808  0.26850  1.0000
  S   S109      1.0  0.99668  0.88960  0.22067  1.0000
  C   C465      1.0  0.32401  0.73777  0.19667  1.0000
  C   C466      1.0  0.40262  0.66071  0.45715  1.0000
  C   C467      1.0  0.38049  0.73039  0.28406  1.0000
  C   C468      1.0  0.40226  0.72471  0.31184  1.0000
  C   C469      1.0  0.37025  0.98234  0.30129  1.0000
  C   C470      1.0  0.31299  0.76906  0.19337  1.0000
  C   C471      1.0  0.36974  0.95285  0.18905  1.0000
  C   C472      1.0  0.14644  0.84175  0.49825  1.0000
  H   H836      1.0  0.44921  0.94740  0.20769  1.0000
  H   H837      1.0  0.44247  0.68081  0.47254  1.0000
  C   C473      1.0  0.34019  0.95175  0.24191  1.0000
  H   H838      1.0  0.38941  0.94432  0.20175  1.0000
  H   H839      1.0  0.24208  0.95447  0.03745  1.0000
  H   H840      1.0  0.40376  0.70898  0.49977  1.0000
  H   H841      1.0  0.35689  0.93424  0.17906  1.0000
  C   C474      1.0  0.48474  0.89771  0.11604  1.0000
  C   C475      1.0  0.48634  0.75868  0.18542  1.0000
  H   H842      1.0  0.01361  0.84121  0.43234  1.0000
  H   H843      1.0  0.42677  0.84945  0.00723  1.0000
  H   H844      1.0  0.26121  0.91487  0.07136  1.0000
  H   H845      1.0  0.02251  0.93214  0.17069  1.0000
  C   C476      1.0  0.47058  0.69520  0.08541  1.0000
  C   C477      1.0  0.44115  0.77926  0.03110  1.0000
  C   C478      1.0  0.48878  0.93075  0.11712  1.0000
  C   C479      1.0  0.47693  0.75975  0.27745  1.0000
  H   H846      1.0  0.32606  0.93439  0.23112  1.0000
  H   H847      1.0  0.11244  0.97192  0.18573  1.0000
  C   C480      1.0  0.40796  0.86278  0.01276  1.0000
  H   H848      1.0  0.40734  0.66569  0.22029  1.0000
  H   H849      1.0  0.46073  0.69246  0.06061  1.0000
  H   H850      1.0  0.99835  0.81578  0.04617  1.0000
  H   H851      1.0  0.42315  0.78985  0.04472  1.0000
  H   H852      1.0  0.48120  0.96205  0.22703  1.0000
  C   C481      1.0  0.01683  0.93674  0.14475  1.0000
  H   H853      1.0  0.00648  0.97132  0.11193  1.0000
  H   H854      1.0  0.47428  0.94021  0.09796  1.0000
  H   H855      1.0  0.14284  0.76792  0.49748  1.0000
  H   H856      1.0  0.99778  0.67760  0.28802  1.0000
  H   H857      1.0  0.04455  0.97030  0.21700  1.0000
  H   H858      1.0  0.48478  0.78212  0.18504  1.0000
  H   H859      1.0  0.11961  0.98355  0.14376  1.0000
  H   H860      1.0  0.01555  0.97370  0.26809  1.0000
  C   C482      1.0  0.02170  0.97801  0.21528  1.0000
  H   H861      1.0  0.06586  0.97678  0.12761  1.0000
  H   H862      1.0  0.99856  0.76039  0.04328  1.0000
  H   H863      1.0  0.43196  0.65599  0.28519  1.0000
  Fe  Fe55      1.0  0.10510  0.80875  0.64221  1.0000
  S   S110      1.0  0.07494  0.83566  0.67441  1.0000
  S   S111      1.0  0.11791  0.83121  0.59319  1.0000
  Fe  Fe56      1.0  0.11009  0.76107  0.69633  1.0000
  S   S112      1.0  0.08113  0.78513  0.73171  1.0000
  S   S113      1.0  0.13069  0.71665  0.70805  1.0000
  Fe  Fe57      1.0  0.05327  0.79312  0.68706  1.0000
  S   S114      1.0  0.00419  0.79110  0.69310  1.0000
  Fe  Fe58      1.0  0.10494  0.82598  0.71658  1.0000
  S   S115      1.0  0.12292  0.85927  0.75392  1.0000
  S   S116      1.0  0.08068  0.76678  0.65196  1.0000
  S   S117      1.0  0.13668  0.80131  0.68422  1.0000
  H   H864      1.0  0.03504  0.76875  0.52028  1.0000
  S   S118      1.0  0.38360  0.69093  0.66308  1.0000
  H   H865      1.0  0.22298  0.91533  0.95960  1.0000
  Fe  Fe59      1.0  0.35195  0.69255  0.70558  1.0000
  S   S119      1.0  0.32791  0.73455  0.71871  1.0000
  H   H866      1.0  0.99379  0.88270  0.94695  1.0000
  Fe  Fe60      1.0  0.34729  0.90625  0.90444  1.0000
  S   S120      1.0  0.31930  0.87409  0.87659  1.0000
  S   S121      1.0  0.34574  0.90858  0.96130  1.0000
  Fe  Fe61      1.0  0.36211  0.93990  0.83968  1.0000
  S   S122      1.0  0.33597  0.90926  0.80780  1.0000
  C   C483      1.0  0.46250  0.72031  0.66761  1.0000
  Fe  Fe62      1.0  0.30248  0.91269  0.84822  1.0000
  S   S123      1.0  0.25437  0.91798  0.83675  1.0000
  Fe  Fe63      1.0  0.35510  0.87318  0.83863  1.0000
  S   S124      1.0  0.37510  0.83017  0.82081  1.0000
  S   S125      1.0  0.32759  0.94493  0.87836  1.0000
  S   S126      1.0  0.38433  0.90365  0.86792  1.0000
  H   H867      1.0  0.43495  0.86001  0.68641  1.0000
  H   H868      1.0  0.12645  0.77664  0.55523  1.0000
  H   H869      1.0  0.39485  0.88312  0.78852  1.0000
  H   H870      1.0  0.99549  0.83503  0.74255  1.0000
  H   H871      1.0  0.32307  0.67032  0.57127  1.0000
  C   C484      1.0  0.34123  0.76095  0.74722  1.0000
  C   C485      1.0  0.36654  0.75626  0.76571  1.0000
  C   C486      1.0  0.37635  0.77760  0.78824  1.0000
  C   C487      1.0  0.36105  0.80389  0.79262  1.0000
  C   C488      1.0  0.33594  0.80879  0.77383  1.0000
  C   C489      1.0  0.32610  0.78740  0.75129  1.0000
  H   H872      1.0  0.37850  0.73613  0.76277  1.0000
  H   H873      1.0  0.39590  0.77366  0.80248  1.0000
  H   H874      1.0  0.32414  0.82904  0.77665  1.0000
  H   H875      1.0  0.30664  0.79134  0.73689  1.0000
  H   H876      1.0  0.43771  0.78436  0.69744  1.0000
  C   C490      1.0  0.20752  0.95518  0.84138  1.0000
  C   C491      1.0  0.23782  0.95196  0.84517  1.0000
  H   H877      1.0  0.23709  0.89019  0.72275  1.0000
  H   H878      1.0  0.14992  0.88245  0.84871  1.0000
  H   H879      1.0  0.19450  0.93724  0.83238  1.0000
  H   H880      1.0  0.17704  0.89821  0.87551  1.0000
  H   H881      1.0  0.22183  0.80125  0.83522  1.0000
  H   H882      1.0  0.40083  0.77263  0.65481  1.0000
  C   C492      1.0  0.00312  0.73385  0.67223  1.0000
  H   H883      1.0  0.27761  0.97384  0.85859  1.0000
  H   H884      1.0  0.20323  0.91019  0.72238  1.0000
  H   H885      1.0  0.24411  0.83243  0.83066  1.0000
  H   H886      1.0  0.31879  0.96521  0.94381  1.0000
  H   H887      1.0  0.02654  0.73550  0.66985  1.0000
  C   C493      1.0  0.13386  0.66496  0.74266  1.0000
  H   H888      1.0  0.43965  0.71723  0.66240  1.0000
  C   C494      1.0  0.12098  0.69278  0.74087  1.0000
  H   H889      1.0  0.37774  0.73595  0.61455  1.0000
  N   N28       1.0  0.44035  0.82595  0.72317  1.0000
  C   C495      1.0  0.40963  0.89371  0.77052  1.0000
  H   H890      1.0  0.26537  0.76987  0.84008  1.0000
  C   C496      1.0  0.10108  0.70096  0.76532  1.0000
  H   H891      1.0  0.06320  0.81564  0.83437  1.0000
  H   H892      1.0  0.29277  0.76993  0.80835  1.0000
  C   C497      1.0  0.29085  0.67562  0.76582  1.0000
  H   H893      1.0  0.09129  0.72236  0.76449  1.0000
  C   C498      1.0  0.10658  0.89155  0.77023  1.0000
  C   C499      1.0  0.07698  0.89803  0.76586  1.0000
  C   C500      1.0  0.06472  0.92301  0.78091  1.0000
  C   C501      1.0  0.08196  0.94216  0.79992  1.0000
  C   C502      1.0  0.11165  0.93600  0.80372  1.0000
  C   C503      1.0  0.12376  0.91079  0.78920  1.0000
  H   H894      1.0  0.06355  0.88368  0.75106  1.0000
  H   H895      1.0  0.04181  0.92766  0.77758  1.0000
  H   H896      1.0  0.12524  0.95043  0.81827  1.0000
  H   H897      1.0  0.14664  0.90627  0.79276  1.0000
  C   C504      1.0  0.12962  0.82328  0.55197  1.0000
  C   C505      1.0  0.13687  0.84662  0.53095  1.0000
  H   H898      1.0  0.14944  0.77119  0.75086  1.0000
  H   H899      1.0  0.18416  0.75318  0.74491  1.0000
  C   C506      1.0  0.13186  0.79486  0.53951  1.0000
  H   H900      1.0  0.13546  0.86868  0.54027  1.0000
  C   C507      1.0  0.14119  0.79001  0.50666  1.0000
  H   H901      1.0  0.39662  0.90160  0.74926  1.0000
  H   H902      1.0  0.25763  0.89837  0.96910  1.0000
  H   H903      1.0  0.23940  0.84355  0.75760  1.0000
  C   C508      1.0  0.26211  0.93919  0.94203  1.0000
  C   C509      1.0  0.00448  0.80090  0.99655  1.0000
  C   C510      1.0  0.40963  0.68778  0.51139  1.0000
  C   C511      1.0  0.47715  0.74475  0.65500  1.0000
  H   H904      1.0  0.26352  0.88641  0.90917  1.0000
  S   S127      1.0  0.45992  0.66880  0.70249  1.0000
  C   C512      1.0  0.24190  0.89143  0.92004  1.0000
  H   H905      1.0  0.29507  0.93999  0.99349  1.0000
  H   H906      1.0  0.39767  0.87044  0.96127  1.0000
  H   H907      1.0  0.46731  0.72756  0.57990  1.0000
  H   H908      1.0  0.34233  0.72696  0.59815  1.0000
  H   H909      1.0  0.14931  0.65841  0.72389  1.0000
  H   H910      1.0  0.03561  0.80092  0.78381  1.0000
  H   H911      1.0  0.47093  0.85644  0.70158  1.0000
  H   H912      1.0  0.40115  0.85215  0.72735  1.0000
  H   H913      1.0  0.25447  0.94716  0.91767  1.0000
  H   H914      1.0  0.28500  0.93230  0.93741  1.0000
  C   C513      1.0  0.39472  0.80377  0.69491  1.0000
  H   H915      1.0  0.06152  0.98188  0.95867  1.0000
  H   H916      1.0  0.37735  0.80866  0.71323  1.0000
  C   C514      1.0  0.45925  0.82641  0.66238  1.0000
  H   H917      1.0  0.03550  0.71622  0.72854  1.0000
  H   H918      1.0  0.38858  0.67672  0.51724  1.0000
  H   H919      1.0  0.40955  0.83166  0.76306  1.0000
  C   C515      1.0  0.19467  0.80803  0.77228  1.0000
  H   H920      1.0  0.18392  0.88034  0.76742  1.0000
  H   H921      1.0  0.23116  0.87064  0.92701  1.0000
  H   H922      1.0  0.02916  0.95292  0.87995  1.0000
  H   H923      1.0  0.47123  0.90233  0.82657  1.0000
  H   H924      1.0  0.03753  0.71428  0.77295  1.0000
  C   C516      1.0  0.04964  0.78695  0.51296  1.0000
  H   H925      1.0  0.44774  0.88403  0.74187  1.0000
  C   C517      1.0  0.05446  0.98116  0.93248  1.0000
  H   H926      1.0  0.31388  0.67327  0.75782  1.0000
  C   C518      1.0  0.25430  0.97570  0.85623  1.0000
  H   H927      1.0  0.41382  0.66905  0.60987  1.0000
  H   H928      1.0  0.44754  0.70000  0.76405  1.0000
  H   H929      1.0  0.08333  0.82245  0.79706  1.0000
  H   H930      1.0  0.21684  0.95589  0.98522  1.0000
  C   C519      1.0  0.24526  0.91092  0.95038  1.0000
  H   H931      1.0  0.06631  0.85237  0.81830  1.0000
  C   C520      1.0  0.42405  0.79873  0.71307  1.0000
  H   H932      1.0  0.46874  0.68921  0.51743  1.0000
  H   H933      1.0  0.42164  0.71876  0.58726  1.0000
  H   H934      1.0  0.99408  0.95688  0.78521  1.0000
  H   H935      1.0  0.19896  0.88786  0.82193  1.0000
  H   H936      1.0  0.00897  0.73489  0.75351  1.0000
  S   S128      1.0  0.06533  0.97271  0.81958  1.0000
  S   S129      1.0  0.38064  0.66886  0.74149  1.0000
  H   H937      1.0  0.21015  0.80095  0.75268  1.0000
  H   H938      1.0  0.01990  0.90875  0.90198  1.0000
  H   H939      1.0  0.21465  0.86483  0.85298  1.0000
  H   H940      1.0  0.41166  0.76019  0.99473  1.0000
  H   H941      1.0  0.07004  0.96743  0.91835  1.0000
  C   C521      1.0  0.45644  0.70511  0.53277  1.0000
  H   H942      1.0  0.41235  0.73703  0.55049  1.0000
  H   H943      1.0  0.36452  0.75417  0.57817  1.0000
  C   C522      1.0  0.37837  0.70933  0.56969  1.0000
  H   H944      1.0  0.16970  0.97403  0.96270  1.0000
  H   H945      1.0  0.02382  0.94689  0.94167  1.0000
  H   H946      1.0  0.00920  0.88055  0.71361  1.0000
  C   C523      1.0  0.09399  0.68153  0.79101  1.0000
  C   C524      1.0  0.38546  0.77670  0.67548  1.0000
  H   H947      1.0  0.46544  0.76025  0.63998  1.0000
  C   C525      1.0  0.46612  0.70762  0.77942  1.0000
  H   H948      1.0  0.39597  0.82244  0.67767  1.0000
  H   H949      1.0  0.41989  0.91282  0.78278  1.0000
  H   H950      1.0  0.29009  0.69261  0.78538  1.0000
  C   C526      1.0  0.41113  0.71542  0.56292  1.0000
  H   H951      1.0  0.48130  0.83244  0.61559  1.0000
  C   C527      1.0  0.27699  0.78380  0.82197  1.0000
  H   H952      1.0  0.17635  0.81851  0.75870  1.0000
  H   H953      1.0  0.27778  0.68295  0.74432  1.0000
  C   C528      1.0  0.47758  0.69990  0.68660  1.0000
  H   H954      1.0  0.41902  0.78522  0.73517  1.0000
  Fe  Fe64      1.0  0.41099  0.66512  0.69805  1.0000
  C   C529      1.0  0.22324  0.85321  0.77488  1.0000
  C   C530      1.0  0.03633  0.82425  0.79099  1.0000
  H   H955      1.0  0.00176  0.68862  0.65778  1.0000
  C   C531      1.0  0.48859  0.79683  0.73112  1.0000
  H   H956      1.0  0.45759  0.71577  0.80335  1.0000
  C   C532      1.0  0.48815  0.68309  0.78495  1.0000
  H   H957      1.0  0.37551  0.68797  0.58190  1.0000
  C   C533      1.0  0.47662  0.84521  0.63830  1.0000
  C   C534      1.0  0.39150  0.87473  0.98656  1.0000
  H   H958      1.0  0.30338  0.67791  0.51483  1.0000
  H   H959      1.0  0.48326  0.95412  0.83719  1.0000
  C   C535      1.0  0.21850  0.89766  0.73816  1.0000
  H   H960      1.0  0.07856  0.68816  0.80975  1.0000
  H   H961      1.0  0.19859  0.97593  0.75539  1.0000
  C   C536      1.0  0.02361  0.96875  0.93009  1.0000
  H   H962      1.0  0.28943  0.80101  0.83529  1.0000
  C   C537      1.0  0.43314  0.87233  0.75917  1.0000
  H   H963      1.0  0.22674  0.91235  0.75794  1.0000
  H   H964      1.0  0.44589  0.86602  0.78131  1.0000
  H   H965      1.0  0.45752  0.94972  0.80434  1.0000
  C   C538      1.0  0.06387  0.82900  0.81160  1.0000
  H   H966      1.0  0.16663  0.86059  0.88064  1.0000
  H   H967      1.0  0.15912  0.74048  0.77598  1.0000
  C   C539      1.0  0.48063  0.94662  0.81127  1.0000
  H   H968      1.0  0.19361  0.85827  0.73257  1.0000
  C   C540      1.0  0.18160  0.78057  0.78900  1.0000
  H   H969      1.0  0.45325  0.72476  0.51704  1.0000
  H   H970      1.0  0.07254  0.77904  0.51373  1.0000
  H   H971      1.0  0.16581  0.84797  0.80351  1.0000
  C   C541      1.0  0.17052  0.87803  0.86223  1.0000
  H   H972      1.0  0.03865  0.83747  0.76831  1.0000
  C   C542      1.0  0.43056  0.66391  0.55997  1.0000
  C   C543      1.0  0.16783  0.76020  0.76356  1.0000
  C   C544      1.0  0.20248  0.87165  0.75314  1.0000
  H   H973      1.0  0.33181  0.98286  0.78354  1.0000
  H   H974      1.0  0.22820  0.90240  0.90123  1.0000
  H   H975      1.0  0.36552  0.70930  0.54651  1.0000
  C   C545      1.0  0.99196  0.89191  0.72801  1.0000
  H   H976      1.0  0.21150  0.96798  0.92432  1.0000
  C   C546      1.0  0.46513  0.81742  0.74575  1.0000
  H   H977      1.0  0.01062  0.88176  0.77480  1.0000
  C   C547      1.0  0.18572  0.84210  0.81769  1.0000
  C   C548      1.0  0.19471  0.86910  0.83832  1.0000
  H   H978      1.0  0.26821  0.81148  0.78075  1.0000
  N   N29       1.0  0.20891  0.82973  0.79522  1.0000
  C   C549      1.0  0.02244  0.71489  0.75157  1.0000
  H   H979      1.0  0.99572  0.93689  0.84218  1.0000
  H   H980      1.0  0.24557  0.77955  0.78320  1.0000
  C   C550      1.0  0.25547  0.79751  0.79774  1.0000
  H   H981      1.0  0.15926  0.67022  0.83255  1.0000
  H   H982      1.0  0.17825  0.82531  0.83551  1.0000
  H   H983      1.0  0.46409  0.86498  0.63142  1.0000
  C   C551      1.0  0.00864  0.83267  0.81083  1.0000
  H   H984      1.0  0.45620  0.80698  0.76845  1.0000
  C   C552      1.0  0.36505  0.73307  0.59151  1.0000
  C   C553      1.0  0.41964  0.84469  0.74298  1.0000
  H   H985      1.0  0.19852  0.76803  0.80233  1.0000
  S   S130      1.0  0.38653  0.98020  0.82095  1.0000
  H   H986      1.0  0.23618  0.86818  0.79091  1.0000
  N   N30       1.0  0.42707  0.69282  0.54260  1.0000
  H   H987      1.0  0.16420  0.78667  0.80672  1.0000
  H   H988      1.0  0.38507  0.75729  0.69176  1.0000
  C   C554      1.0  0.23200  0.81558  0.81633  1.0000
  H   H989      1.0  0.16654  0.66853  0.87618  1.0000
  H   H990      1.0  0.43923  0.81893  0.64952  1.0000
  N   N31       1.0  0.26111  0.96333  0.96741  1.0000
  H   H991      1.0  0.47734  0.83702  0.75423  1.0000
  H   H992      1.0  0.46173  0.66291  0.82279  1.0000
  C   C555      1.0  0.47766  0.71341  0.56110  1.0000
  C   C556      1.0  0.01341  0.96695  0.89361  1.0000
  C   C557      1.0  0.00286  0.68785  0.75147  1.0000
  H   H993      1.0  0.21230  0.66835  0.84460  1.0000
  H   H994      1.0  0.36320  0.77986  0.66527  1.0000
  C   C558      1.0  0.48716  0.91398  0.81068  1.0000
  C   C559      1.0  0.45138  0.84351  0.69418  1.0000
  C   C560      1.0  0.23028  0.97337  0.97415  1.0000
  H   H995      1.0  0.42481  0.79606  0.98471  1.0000
  H   H996      1.0  0.44882  0.76520  0.98038  1.0000
  C   C561      1.0  0.43104  0.77474  0.99555  1.0000
  H   H997      1.0  0.25086  0.66421  0.81462  1.0000
  H   H998      1.0  0.44526  0.96393  0.75464  1.0000
  H   H999      1.0  0.99085  0.78958  0.76771  1.0000
  C   C562      1.0  0.21304  0.98481  0.94392  1.0000
  H   H1000     1.0  0.47235  0.80700  0.66791  1.0000
  H   H1001     1.0  0.48544  0.90524  0.78521  1.0000
  H   H1002     1.0  0.99799  0.91530  0.73006  1.0000
  H   H1003     1.0  0.47893  0.77645  0.72129  1.0000
  H   H1004     1.0  0.45041  0.68158  0.60625  1.0000
  H   H1005     1.0  0.17046  0.98396  0.84623  1.0000
  H   H1006     1.0  0.00441  0.85839  0.91405  1.0000
  H   H1007     1.0  0.00965  0.82311  0.98739  1.0000
  C   C563      1.0  0.99663  0.90295  0.89846  1.0000
  H   H1008     1.0  0.02654  0.66253  0.71530  1.0000
  H   H1009     1.0  0.23507  0.66228  0.77508  1.0000
  H   H1010     1.0  0.47692  0.72591  0.76631  1.0000
  C   C564      1.0  0.36731  0.89241  0.99318  1.0000
  C   C565      1.0  0.43495  0.66463  0.59788  1.0000
  H   H1011     1.0  0.04710  0.80494  0.53115  1.0000
  C   C566      1.0  0.16795  0.65625  0.85260  1.0000
  C   C567      1.0  0.19382  0.98172  0.84917  1.0000
  H   H1012     1.0  0.01165  0.85519  0.82056  1.0000
  C   C568      1.0  0.31684  0.65908  0.51979  1.0000
  H   H1013     1.0  0.00858  0.81853  0.83305  1.0000
  H   H1014     1.0  0.99322  0.68605  0.77641  1.0000
  H   H1015     1.0  0.99353  0.89575  0.87253  1.0000
  C   C569      1.0  0.98998  0.87691  0.92068  1.0000
  H   H1016     1.0  0.00932  0.98318  0.94489  1.0000
  C   C570      1.0  0.02042  0.66021  0.74180  1.0000
  H   H1017     1.0  0.04138  0.66141  0.75538  1.0000
  C   C571      1.0  0.44508  0.98809  0.75563  1.0000
  C   C572      1.0  0.27580  0.95402  0.99910  1.0000
  H   H1018     1.0  0.99259  0.78893  0.97683  1.0000
  C   C573      1.0  0.31149  0.98660  0.95314  1.0000
  H   H1019     1.0  0.48603  0.69338  0.57307  1.0000
  C   C574      1.0  0.47316  0.65578  0.79988  1.0000
  H   H1020     1.0  0.97329  0.06605  0.09919  1.0000
  Fe  Fe65      1.0  0.56043  0.08257  0.13443  1.0000
  S   S131      1.0  0.59106  0.11719  0.15326  1.0000
  S   S132      1.0  0.56877  0.05269  0.08955  1.0000
  Fe  Fe66      1.0  0.52021  0.08836  0.19670  1.0000
  S   S133      1.0  0.54855  0.12292  0.21992  1.0000
  H   H1021     1.0  0.51450  0.02974  0.13969  1.0000
  Fe  Fe67      1.0  0.55005  0.14111  0.16829  1.0000
  S   S134      1.0  0.54402  0.18846  0.15461  1.0000
  Fe  Fe68      1.0  0.58743  0.09626  0.20327  1.0000
  S   S135      1.0  0.62672  0.07923  0.23263  1.0000
  S   S136      1.0  0.51970  0.10805  0.14590  1.0000
  S   S137      1.0  0.55874  0.06011  0.18382  1.0000
  Fe  Fe69      1.0  0.79998  0.10663  0.40393  1.0000
  S   S138      1.0  0.83379  0.07748  0.38101  1.0000
  S   S139      1.0  0.79297  0.11046  0.46020  1.0000
  Fe  Fe70      1.0  0.76980  0.11615  0.33577  1.0000
  S   S140      1.0  0.80225  0.08819  0.30838  1.0000
  S   S141      1.0  0.73149  0.14027  0.31191  1.0000
  Fe  Fe71      1.0  0.79708  0.05796  0.35152  1.0000
  S   S142      1.0  0.79523  0.00899  0.34566  1.0000
  Fe  Fe72      1.0  0.83650  0.11005  0.33968  1.0000
  S   S143      1.0  0.88123  0.12711  0.32348  1.0000
  S   S144      1.0  0.76285  0.08441  0.37701  1.0000
  S   S145      1.0  0.80450  0.14079  0.36434  1.0000
  C   C575      1.0  0.96195  0.22754  0.15403  1.0000
  C   C576      1.0  0.70799  0.99420  0.34983  1.0000
  S   S146      1.0  0.92544  0.27475  0.15737  1.0000
  H   H1022     1.0  0.78535  0.99554  0.27536  1.0000
  H   H1023     1.0  0.88937  0.19838  0.22033  1.0000
  H   H1024     1.0  0.97983  0.29316  0.18764  1.0000
  H   H1025     1.0  0.66941  0.00995  0.00417  1.0000
  C   C577      1.0  0.95884  0.25669  0.16397  1.0000
  H   H1026     1.0  0.91740  0.26324  0.26789  1.0000
  H   H1027     1.0  0.55561  0.31678  0.17887  1.0000
  C   C578      1.0  0.51331  0.20697  0.17033  1.0000
  C   C579      1.0  0.73669  0.17085  0.41346  1.0000
  C   C580      1.0  0.91915  0.15534  0.18606  1.0000
  H   H1028     1.0  0.65936  0.24993  0.27014  1.0000
  H   H1029     1.0  0.54153  0.31716  0.12028  1.0000
  H   H1030     1.0  0.79670  0.04408  0.43372  1.0000
  H   H1031     1.0  0.94417  0.21670  0.14143  1.0000
  C   C581      1.0  0.90578  0.11307  0.29338  1.0000
  C   C582      1.0  0.89694  0.09348  0.26879  1.0000
  C   C583      1.0  0.91706  0.08381  0.24477  1.0000
  C   C584      1.0  0.94608  0.09397  0.24467  1.0000
  C   C585      1.0  0.95489  0.11352  0.26927  1.0000
  C   C586      1.0  0.93491  0.12282  0.29356  1.0000
  H   H1032     1.0  0.87451  0.08619  0.26795  1.0000
  H   H1033     1.0  0.93031  0.16756  0.16611  1.0000
  H   H1034     1.0  0.91993  0.21251  0.19875  1.0000
  H   H1035     1.0  0.94208  0.13780  0.31255  1.0000
  C   C587      1.0  0.65624  0.09720  0.25311  1.0000
  C   C588      1.0  0.65610  0.12711  0.25988  1.0000
  C   C589      1.0  0.67929  0.13998  0.27776  1.0000
  C   C590      1.0  0.70285  0.12312  0.28924  1.0000
  C   C591      1.0  0.70302  0.09322  0.28240  1.0000
  C   C592      1.0  0.67998  0.08045  0.26432  1.0000
  H   H1036     1.0  0.63796  0.14021  0.25170  1.0000
  H   H1037     1.0  0.67888  0.16310  0.28291  1.0000
  H   H1038     1.0  0.72095  0.07995  0.29095  1.0000
  H   H1039     1.0  0.68047  0.05733  0.25924  1.0000
  C   C593      1.0  0.57290  0.06161  0.04687  1.0000
  C   C594      1.0  0.57057  0.09019  0.03525  1.0000
  H   H1040     1.0  0.51091  0.00661  0.24556  1.0000
  C   C595      1.0  0.57874  0.03921  0.02393  1.0000
  H   H1041     1.0  0.56610  0.10771  0.05244  1.0000
  H   H1042     1.0  0.58050  0.01699  0.03252  1.0000
  C   C596      1.0  0.73512  0.00815  0.34648  1.0000
  H   H1043     1.0  0.71200  0.22462  0.40165  1.0000
  H   H1044     1.0  0.68825  0.00696  0.34976  1.0000
  H   H1045     1.0  0.73609  0.03154  0.34354  1.0000
  H   H1046     1.0  0.50751  0.17890  0.21225  1.0000
  H   H1047     1.0  0.60160  0.02322  0.35200  1.0000
  C   C597      1.0  0.97057  0.24596  0.26804  1.0000
  H   H1048     1.0  0.89529  0.15490  0.18128  1.0000
  C   C598      1.0  0.55254  0.00126  0.27039  1.0000
  C   C599      1.0  0.57261  0.01800  0.29478  1.0000
  H   H1049     1.0  0.71355  0.07402  0.00851  1.0000
  H   H1050     1.0  0.86699  0.01739  0.33651  1.0000
  C   C600      1.0  0.91079  0.24881  0.24724  1.0000
  H   H1051     1.0  0.88936  0.00674  0.22666  1.0000
  H   H1052     1.0  0.63114  0.07427  0.07696  1.0000
  C   C601      1.0  0.60758  0.18864  0.21563  1.0000
  H   H1053     1.0  0.74725  0.27314  0.41341  1.0000
  C   C602      1.0  0.73938  0.31614  0.39556  1.0000
  H   H1054     1.0  0.57718  0.03948  0.28305  1.0000
  H   H1055     1.0  0.55985  0.02334  0.31735  1.0000
  H   H1056     1.0  0.64843  0.02886  0.04852  1.0000
  H   H1057     1.0  0.73757  0.14700  0.40877  1.0000
  H   H1058     1.0  0.97892  0.01536  0.11863  1.0000
  H   H1059     1.0  0.68815  0.21832  0.34895  1.0000
  H   H1060     1.0  0.71780  0.17545  0.42980  1.0000
  H   H1061     1.0  0.52212  0.00012  0.18271  1.0000
  H   H1062     1.0  0.64564  0.30517  0.45960  1.0000
  C   C603      1.0  0.52465  0.01844  0.26371  1.0000
  H   H1063     1.0  0.64908  0.08930  0.33854  1.0000
  C   C604      1.0  0.79133  0.02101  0.43987  1.0000
  H   H1064     1.0  0.89369  0.06114  0.35728  1.0000
  H   H1065     1.0  0.73674  0.99038  0.48664  1.0000
  C   C605      1.0  0.49985  0.19813  0.19959  1.0000
  C   C606      1.0  0.73163  0.22044  0.38608  1.0000
  H   H1066     1.0  0.52557  0.26130  0.21984  1.0000
  C   C607      1.0  0.97349  0.16901  0.49510  1.0000
  C   C608      1.0  0.91348  0.20077  0.22160  1.0000
  C   C609      1.0  0.83666  0.99640  0.41534  1.0000
  C   C610      1.0  0.57117  0.27067  0.18001  1.0000
  H   H1067     1.0  0.56230  0.25071  0.16789  1.0000
  H   H1068     1.0  0.84401  0.28522  0.23982  1.0000
  H   H1069     1.0  0.87498  0.20030  0.33738  1.0000
  C   C611      1.0  0.55169  0.29567  0.16640  1.0000
  H   H1070     1.0  0.63556  0.00910  0.33932  1.0000
  C   C612      1.0  0.62455  0.05223  0.32020  1.0000
  C   C613      1.0  0.70167  0.05510  0.42442  1.0000
  C   C614      1.0  0.64461  0.06636  0.34573  1.0000
  H   H1071     1.0  0.75269  0.06280  0.45666  1.0000
  C   C615      1.0  0.90447  0.04519  0.34067  1.0000
  H   H1072     1.0  0.73859  0.03058  0.40764  1.0000
  H   H1073     1.0  0.86586  0.24195  0.26545  1.0000
  C   C616      1.0  0.87718  0.25176  0.24400  1.0000
  C   C617      1.0  0.73357  0.18696  0.38070  1.0000
  H   H1074     1.0  0.63616  0.05249  0.29646  1.0000
  H   H1075     1.0  0.66579  0.05471  0.34668  1.0000
  H   H1076     1.0  0.57589  0.99820  0.17430  1.0000
  H   H1077     1.0  0.50648  0.27394  0.30770  1.0000
  H   H1078     1.0  0.59365  0.27335  0.17002  1.0000
  H   H1079     1.0  0.55798  0.22156  0.21842  1.0000
  C   C618      1.0  0.54303  0.27442  0.23203  1.0000
  H   H1080     1.0  0.91668  0.02933  0.35598  1.0000
  H   H1081     1.0  0.78198  0.01215  0.41673  1.0000
  C   C619      1.0  0.65976  0.06638  0.01757  1.0000
  H   H1082     1.0  0.77784  0.23920  0.35600  1.0000
  H   H1083     1.0  0.71365  0.17850  0.36838  1.0000
  H   H1084     1.0  0.60006  0.22043  0.17818  1.0000
  H   H1085     1.0  0.93713  0.22104  0.32127  1.0000
  H   H1086     1.0  0.63430  0.06628  0.37052  1.0000
  C   C620      1.0  0.86809  0.28374  0.24213  1.0000
  C   C621      1.0  0.61929  0.00082  0.27283  1.0000
  C   C622      1.0  0.64614  0.31391  0.48438  1.0000
  N   N32       1.0  0.60086  0.00311  0.30360  1.0000
  H   H1087     1.0  0.76904  0.28350  0.37822  1.0000
  C   C623      1.0  0.72526  0.03216  0.43023  1.0000
  H   H1088     1.0  0.58752  0.17594  0.21015  1.0000
  C   C624      1.0  0.57783  0.23473  0.22406  1.0000
  C   C625      1.0  0.60373  0.22037  0.20522  1.0000
  H   H1089     1.0  0.84053  0.01561  0.39941  1.0000
  H   H1090     1.0  0.62596  0.17869  0.20175  1.0000
  C   C626      1.0  0.74686  0.28418  0.38913  1.0000
  H   H1091     1.0  0.49943  0.29572  0.27166  1.0000
  N   N33       1.0  0.73055  0.23885  0.35520  1.0000
  C   C627      1.0  0.72414  0.26978  0.36582  1.0000
  C   C628      1.0  0.70617  0.22729  0.33350  1.0000
  C   C629      1.0  0.75970  0.23615  0.33805  1.0000
  C   C630      1.0  0.76529  0.25673  0.30855  1.0000
  C   C631      1.0  0.61592  0.02077  0.33007  1.0000
  C   C632      1.0  0.69074  0.24929  0.31022  1.0000
  C   C633      1.0  0.67088  0.23362  0.28556  1.0000
  C   C634      1.0  0.79680  0.25436  0.29644  1.0000
  H   H1092     1.0  0.89345  0.29557  0.04013  1.0000
  H   H1093     1.0  0.70251  0.27071  0.37840  1.0000
  H   H1094     1.0  0.72191  0.28442  0.34431  1.0000
  C   C635      1.0  0.95553  0.21857  0.25309  1.0000
  H   H1095     1.0  0.76164  0.27983  0.31522  1.0000
  H   H1096     1.0  0.75108  0.25060  0.28755  1.0000
  H   H1097     1.0  0.62464  0.23164  0.21029  1.0000
  H   H1098     1.0  0.75082  0.22647  0.40148  1.0000
  H   H1099     1.0  0.67688  0.26434  0.32496  1.0000
  H   H1100     1.0  0.70631  0.26278  0.29609  1.0000
  H   H1101     1.0  0.65432  0.22025  0.29866  1.0000
  H   H1102     1.0  0.68394  0.21930  0.26909  1.0000
  H   H1103     1.0  0.80182  0.23166  0.28873  1.0000
  H   H1104     1.0  0.79995  0.26893  0.27491  1.0000
  H   H1105     1.0  0.81225  0.26123  0.31611  1.0000
  N   N34       1.0  0.76954  0.01998  0.46780  1.0000
  H   H1106     1.0  0.88615  0.19891  0.27802  1.0000
  S   S147      1.0  0.97058  0.08143  0.21369  1.0000
  C   C636      1.0  0.57360  0.09616  0.00124  1.0000
  H   H1107     1.0  0.90422  0.24192  0.31395  1.0000
  H   H1108     1.0  0.71149  0.07698  0.42068  1.0000
  H   H1109     1.0  0.76269  0.21369  0.32821  1.0000
  Fe  Fe73      1.0  0.92341  0.32163  0.17437  1.0000
  H   H1110     1.0  0.87802  0.29423  0.22017  1.0000
  H   H1111     1.0  0.53735  0.29755  0.22733  1.0000
  C   C637      1.0  0.50805  0.27452  0.28039  1.0000
  C   C638      1.0  0.50349  0.23223  0.15445  1.0000
  H   H1112     1.0  0.90069  0.21594  0.36609  1.0000
  H   H1113     1.0  0.94954  0.16828  0.22332  1.0000
  H   H1114     1.0  0.87484  0.29581  0.26468  1.0000
  C   C639      1.0  0.91369  0.21973  0.31478  1.0000
  C   C640      1.0  0.79441  0.99649  0.25000  1.0000
  C   C641      1.0  0.89274  0.31940  0.04413  1.0000
  H   H1115     1.0  0.83635  0.00543  0.29394  1.0000
  C   C642      1.0  0.90980  0.20354  0.28158  1.0000
  H   H1116     1.0  0.49418  0.25682  0.27008  1.0000
  H   H1117     1.0  0.95280  0.15634  0.49443  1.0000
  H   H1118     1.0  0.75270  0.18116  0.36541  1.0000
  C   C643      1.0  0.82076  0.00530  0.44687  1.0000
  C   C644      1.0  0.53983  0.27042  0.26981  1.0000
  H   H1119     1.0  0.61808  0.27655  0.22236  1.0000
  H   H1120     1.0  0.98694  0.04159  0.15054  1.0000
  H   H1121     1.0  0.66874  0.08470  0.08384  1.0000
  N   N35       1.0  0.57220  0.26661  0.21706  1.0000
  H   H1122     1.0  0.58248  0.23135  0.25067  1.0000
  H   H1123     1.0  0.59799  0.27975  0.25933  1.0000
  H   H1124     1.0  0.91493  0.15546  0.23850  1.0000
  H   H1125     1.0  0.92739  0.13257  0.18575  1.0000
  H   H1126     1.0  0.54628  0.24838  0.27800  1.0000
  H   H1127     1.0  0.55338  0.28679  0.28307  1.0000
  H   H1128     1.0  0.90999  0.06880  0.22577  1.0000
  C   C645      1.0  0.78479  0.03176  0.49816  1.0000
  C   C646      1.0  0.81281  0.12611  0.49398  1.0000
  H   H1129     1.0  0.51375  0.23911  0.13174  1.0000
  H   H1130     1.0  0.96076  0.25276  0.29174  1.0000
  H   H1131     1.0  0.96371  0.19903  0.26646  1.0000
  H   H1132     1.0  0.72895  0.04117  0.48127  1.0000
  C   C647      1.0  0.83803  0.14291  0.48958  1.0000
  H   H1133     1.0  0.68900  0.04924  0.40203  1.0000
  H   H1134     1.0  0.92009  0.05728  0.32483  1.0000
  H   H1135     1.0  0.60483  0.06611  0.31785  1.0000
  C   C648      1.0  0.92559  0.16920  0.21957  1.0000
  H   H1136     1.0  0.66536  0.01050  0.23072  1.0000
  H   H1137     1.0  0.84842  0.02350  0.25808  1.0000
  C   C649      1.0  0.66293  0.04828  0.04962  1.0000
  H   H1138     1.0  0.75721  0.17733  0.42615  1.0000
  C   C650      1.0  0.89856  0.20338  0.34278  1.0000
  H   H1139     1.0  0.68647  0.05607  0.44572  1.0000
  H   H1140     1.0  0.86923  0.24118  0.22107  1.0000
  C   C651      1.0  0.65375  0.06596  0.07991  1.0000
  H   H1141     1.0  0.87693  0.31297  0.09441  1.0000
  H   H1142     1.0  0.71374  0.01124  0.43451  1.0000
  H   H1143     1.0  0.86814  0.04640  0.30734  1.0000
  H   H1144     1.0  0.96498  0.21677  0.22783  1.0000
  C   C652      1.0  0.59632  0.31712  0.22689  1.0000
  H   H1145     1.0  0.84626  0.14660  0.46494  1.0000
  N   N36       1.0  0.92244  0.21828  0.25159  1.0000
  H   H1146     1.0  0.92074  0.25882  0.22493  1.0000
  H   H1147     1.0  0.90884  0.18172  0.34640  1.0000
  C   C653      1.0  0.65174  0.99236  0.27799  1.0000
  H   H1148     1.0  0.93751  0.99943  0.19700  1.0000
  H   H1149     1.0  0.61882  0.02157  0.25872  1.0000
  H   H1150     1.0  0.68577  0.04099  0.05327  1.0000
  C   C654      1.0  0.74444  0.04017  0.46024  1.0000
  C   C655      1.0  0.55651  0.29999  0.12947  1.0000
  H   H1151     1.0  0.49347  0.06452  0.10010  1.0000
  H   H1152     1.0  0.91983  0.18173  0.28494  1.0000
  C   C656      1.0  0.88155  0.02951  0.31969  1.0000
  H   H1153     1.0  0.79542  0.05309  0.49261  1.0000
  H   H1154     1.0  0.61242  0.18724  0.24241  1.0000
  H   H1155     1.0  0.91419  0.99744  0.30587  1.0000
  C   C657      1.0  0.59678  0.28387  0.23233  1.0000
  H   H1156     1.0  0.71403  0.20850  0.31841  1.0000
  H   H1157     1.0  0.55187  0.27948  0.11579  1.0000
  H   H1158     1.0  0.90763  0.02518  0.27661  1.0000
  H   H1159     1.0  0.66815  0.08858  0.02340  1.0000
  H   H1160     1.0  0.65434  0.05196  0.10219  1.0000
  H   H1161     1.0  0.83535  0.02020  0.46094  1.0000
  H   H1162     1.0  0.79494  0.01955  0.24175  1.0000
  H   H1163     1.0  0.71471  0.03567  0.00564  1.0000
  H   H1164     1.0  0.76669  0.31750  0.24440  1.0000
  H   H1165     1.0  0.51182  0.02135  0.28673  1.0000
  C   C658      1.0  0.89630  0.00962  0.29345  1.0000
  H   H1166     1.0  0.97717  0.12135  0.26969  1.0000
  C   C659      1.0  0.98202  0.27070  0.17986  1.0000
  C   C660      1.0  0.84683  0.00157  0.26974  1.0000
  H   H1167     1.0  0.97034  0.18992  0.48182  1.0000
  H   H1168     1.0  0.96862  0.26452  0.25063  1.0000
  H   H1169     1.0  0.63594  0.06914  0.01306  1.0000
  H   H1170     1.0  0.52994  0.04022  0.25338  1.0000
  H   H1171     1.0  0.83541  0.28686  0.01290  1.0000
  H   H1172     1.0  0.50491  0.03185  0.07939  1.0000
  H   H1173     1.0  0.56368  0.99796  0.24638  1.0000
  H   H1174     1.0  0.91596  0.31557  0.09067  1.0000
  H   H1175     1.0  0.52828  0.29021  0.16996  1.0000
  C   C661      1.0  0.66757  0.98994  0.24493  1.0000
  H   H1176     1.0  0.71737  0.31818  0.40687  1.0000
  H   H1177     1.0  0.57932  0.30692  0.12456  1.0000
  N   N37       1.0  0.87698  0.98890  0.27396  1.0000
  H   H1178     1.0  0.66343  0.00907  0.29277  1.0000
  C   C662      1.0  0.76084  0.99188  0.34744  1.0000
  C   C663      1.0  0.98788  0.21224  0.16054  1.0000
  C   C664      1.0  0.75860  0.98944  0.47467  1.0000
  C   C665      1.0  0.49197  0.02580  0.13075  1.0000
  H   H1179     1.0  0.59896  0.32214  0.20034  1.0000
  Fe  Fe74      1.0  0.61298  0.29289  0.63076  1.0000
  Fe  Fe75      1.0  0.61763  0.26659  0.70111  1.0000
  S   S148      1.0  0.58604  0.29911  0.72269  1.0000
  S   S149      1.0  0.64053  0.23325  0.73423  1.0000
  Fe  Fe76      1.0  0.55992  0.29000  0.67686  1.0000
  S   S150      1.0  0.51077  0.28620  0.68073  1.0000
  S   S151      1.0  0.59012  0.25573  0.65699  1.0000
  Fe  Fe77      1.0  0.60215  0.01116  0.83588  1.0000
  S   S152      1.0  0.63580  0.03468  0.80567  1.0000
  H   H1180     1.0  0.89677  0.29517  0.94807  1.0000
  Fe  Fe78      1.0  0.59982  0.05997  0.88907  1.0000
  S   S153      1.0  0.63320  0.08665  0.86147  1.0000
  S   S154      1.0  0.58225  0.08284  0.93553  1.0000
  Fe  Fe79      1.0  0.60923  0.07525  0.81509  1.0000
  S   S155      1.0  0.59542  0.10551  0.77298  1.0000
  Fe  Fe80      1.0  0.65669  0.04416  0.85469  1.0000
  S   S156      1.0  0.70532  0.04356  0.86353  1.0000
  S   S157      1.0  0.57389  0.05115  0.84264  1.0000
  S   S158      1.0  0.62498  0.01810  0.88472  1.0000
  Fe  Fe81      1.0  0.90720  0.17012  0.69398  1.0000
  S   S159      1.0  0.88392  0.20386  0.66413  1.0000
  S   S160      1.0  0.95616  0.16943  0.70168  1.0000
  Fe  Fe82      1.0  0.85194  0.13569  0.70725  1.0000
  S   S161      1.0  0.82432  0.16775  0.67830  1.0000
  S   S162      1.0  0.83114  0.09401  0.72776  1.0000
  Fe  Fe83      1.0  0.86005  0.16642  0.63994  1.0000
  S   S163      1.0  0.86110  0.16817  0.58305  1.0000
  Fe  Fe84      1.0  0.85051  0.20284  0.70461  1.0000
  S   S164      1.0  0.82912  0.24545  0.72247  1.0000
  S   S165      1.0  0.88592  0.13268  0.66746  1.0000
  S   S166      1.0  0.87521  0.17080  0.73608  1.0000
  C   C666      1.0  0.84720  0.06704  0.75360  1.0000
  C   C667      1.0  0.83275  0.04019  0.75783  1.0000
  C   C668      1.0  0.84456  0.01821  0.77816  1.0000
  C   C669      1.0  0.87102  0.02284  0.79463  1.0000
  C   C670      1.0  0.88514  0.04990  0.79091  1.0000
  C   C671      1.0  0.87339  0.07185  0.77053  1.0000
  H   H1181     1.0  0.81244  0.03620  0.74502  1.0000
  H   H1182     1.0  0.90526  0.05390  0.80402  1.0000
  H   H1183     1.0  0.88450  0.09254  0.76806  1.0000
  C   C672      1.0  0.84378  0.27239  0.74987  1.0000
  C   C673      1.0  0.87110  0.26932  0.76492  1.0000
  C   C674      1.0  0.88192  0.29138  0.78608  1.0000
  H   H1184     1.0  0.77206  0.05649  0.94579  1.0000
  H   H1185     1.0  0.96261  0.13850  0.76623  1.0000
  C   C675      1.0  0.82757  0.29786  0.75640  1.0000
  H   H1186     1.0  0.88388  0.24994  0.76028  1.0000
  H   H1187     1.0  0.90304  0.28867  0.79755  1.0000
  H   H1188     1.0  0.74328  0.02612  0.76961  1.0000
  H   H1189     1.0  0.80652  0.30065  0.74490  1.0000
  C   C676      1.0  0.81718  0.13387  0.55396  1.0000
  C   C677      1.0  0.84220  0.15100  0.54950  1.0000
  C   C678      1.0  0.85245  0.15536  0.51710  1.0000
  H   H1190     1.0  0.69354  0.10101  0.82320  1.0000
  H   H1191     1.0  0.80888  0.13032  0.57858  1.0000
  H   H1192     1.0  0.74575  0.26588  0.75624  1.0000
  C   C679      1.0  0.72228  0.00912  0.86394  1.0000
  H   H1193     1.0  0.84708  0.29360  0.93825  1.0000
  H   H1194     1.0  0.76571  0.02681  0.85920  1.0000
  H   H1195     1.0  0.49038  0.19108  0.82679  1.0000
  C   C680      1.0  0.57922  0.07377  0.97826  1.0000
  H   H1196     1.0  0.81849  0.06315  0.82535  1.0000
  H   H1197     1.0  0.65178  0.11460  0.97965  1.0000
  C   C681      1.0  0.73711  0.10414  0.71591  1.0000
  C   C682      1.0  0.50750  0.11305  0.77276  1.0000
  C   C683      1.0  0.51254  0.22618  0.68429  1.0000
  H   H1198     1.0  0.97525  0.12713  0.80620  1.0000
  H   H1199     1.0  0.57171  0.12889  0.87847  1.0000
  C   C684      1.0  0.95814  0.22814  0.68857  1.0000
  H   H1200     1.0  0.51298  0.17923  0.68667  1.0000
  H   H1201     1.0  0.53575  0.22792  0.68011  1.0000
  H   H1202     1.0  0.95973  0.27296  0.67351  1.0000
  H   H1203     1.0  0.93469  0.22782  0.69039  1.0000
  C   C685      1.0  0.62727  0.19800  0.74505  1.0000
  C   C686      1.0  0.63950  0.18341  0.77225  1.0000
  C   C687      1.0  0.62995  0.15524  0.78128  1.0000
  C   C688      1.0  0.60852  0.14097  0.76268  1.0000
  C   C689      1.0  0.59664  0.15540  0.73518  1.0000
  C   C690      1.0  0.60555  0.18387  0.72675  1.0000
  H   H1204     1.0  0.65627  0.19413  0.78663  1.0000
  H   H1205     1.0  0.63915  0.14452  0.80257  1.0000
  H   H1206     1.0  0.58039  0.14452  0.72021  1.0000
  H   H1207     1.0  0.59592  0.19468  0.70574  1.0000
  C   C691      1.0  0.94268  0.05746  0.72250  1.0000
  C   C692      1.0  0.98221  0.13292  0.78085  1.0000
  H   H1208     1.0  0.86365  0.24373  0.95399  1.0000
  H   H1209     1.0  0.53463  0.12251  0.89198  1.0000
  C   C693      1.0  0.75668  0.09459  0.74517  1.0000
  H   H1210     1.0  0.82934  0.24277  0.93237  1.0000
  C   C694      1.0  0.72769  0.25126  0.70956  1.0000
  H   H1211     1.0  0.70747  0.06043  0.79673  1.0000
  H   H1212     1.0  0.82533  0.09760  0.84516  1.0000
  H   H1213     1.0  0.98633  0.15302  0.54233  1.0000
  H   H1214     1.0  0.72828  0.10548  0.84324  1.0000
  H   H1215     1.0  0.92928  0.07636  0.67559  1.0000
  H   H1216     1.0  0.90466  0.28105  0.59631  1.0000
  C   C695      1.0  0.91130  0.00155  0.90490  1.0000
  H   H1217     1.0  0.88773  0.99712  0.90111  1.0000
  C   C696      1.0  0.66470  0.07253  0.95819  1.0000
  H   H1218     1.0  0.70109  0.00207  0.95757  1.0000
  C   C697      1.0  0.67761  0.00633  0.95295  1.0000
  H   H1219     1.0  0.49718  0.30898  0.79381  1.0000
  C   C698      1.0  0.97242  0.25391  0.67953  1.0000
  H   H1220     1.0  0.95492  0.04362  0.85060  1.0000
  H   H1221     1.0  0.67553  0.06575  0.93495  1.0000
  H   H1222     1.0  0.66971  0.14569  0.93376  1.0000
  H   H1223     1.0  0.79600  0.07471  0.85966  1.0000
  C   C699      1.0  0.78713  0.09736  0.81350  1.0000
  H   H1224     1.0  0.85207  0.30726  0.68826  1.0000
  N   N38       1.0  0.74122  0.08836  0.77720  1.0000
  H   H1225     1.0  0.74879  0.22562  0.58966  1.0000
  C   C700      1.0  0.94162  0.14720  0.60056  1.0000
  H   H1226     1.0  0.54814  0.24712  0.74071  1.0000
  N   N39       1.0  0.49584  0.99566  0.78285  1.0000
  C   C701      1.0  0.64853  0.18474  0.65347  1.0000
  C   C702      1.0  0.96896  0.06912  0.79157  1.0000
  C   C703      1.0  0.49541  0.25132  0.68596  1.0000
  H   H1227     1.0  0.54666  0.24940  0.78497  1.0000
  H   H1228     1.0  0.69382  0.21154  0.68471  1.0000
  S   S167      1.0  0.88780  0.99548  0.81932  1.0000
  C   C704      1.0  0.83844  0.31996  0.77748  1.0000
  H   H1229     1.0  0.88762  0.24592  0.60168  1.0000
  H   H1230     1.0  0.74481  0.13406  0.79023  1.0000
  C   C705      1.0  0.66866  0.10596  0.96252  1.0000
  H   H1231     1.0  0.78295  0.10904  0.53020  1.0000
  H   H1232     1.0  0.51299  0.22072  0.55736  1.0000
  N   N40       1.0  0.71311  0.24071  0.64866  1.0000
  H   H1233     1.0  0.97099  0.17286  0.63068  1.0000
  H   H1234     1.0  0.65359  0.17498  0.67785  1.0000
  C   C706      1.0  0.71350  0.11472  0.82437  1.0000
  H   H1235     1.0  0.57563  0.22927  0.76504  1.0000
  H   H1236     1.0  0.95933  0.21433  0.53659  1.0000
  H   H1237     1.0  0.77293  0.11236  0.74868  1.0000
  H   H1238     1.0  0.54274  0.14178  0.76028  1.0000
  C   C707      1.0  0.75884  0.05331  0.96848  1.0000
  H   H1239     1.0  0.93974  0.21335  0.62694  1.0000
  H   H1240     1.0  0.75109  0.01737  0.53361  1.0000
  H   H1241     1.0  0.72035  0.04363  0.94072  1.0000
  H   H1242     1.0  0.52134  0.03395  0.76996  1.0000
  H   H1243     1.0  0.69494  0.29709  0.56806  1.0000
  H   H1244     1.0  0.63098  0.20118  0.65657  1.0000
  C   C708      1.0  0.72668  0.05874  0.96075  1.0000
  H   H1245     1.0  0.72358  0.19718  0.59907  1.0000
  C   C709      1.0  0.76316  0.07604  0.80117  1.0000
  H   H1246     1.0  0.55577  0.15156  0.90996  1.0000
  H   H1247     1.0  0.90326  0.08103  0.70876  1.0000
  H   H1248     1.0  0.96741  0.30320  0.72339  1.0000
  H   H1249     1.0  0.69331  0.00949  0.77889  1.0000
  C   C710      1.0  0.49961  0.19861  0.68803  1.0000
  H   H1250     1.0  0.68036  0.11353  0.91110  1.0000
  H   H1251     1.0  0.93652  0.14246  0.57436  1.0000
  H   H1252     1.0  0.91288  0.25974  0.63239  1.0000
  H   H1253     1.0  0.67528  0.01823  0.92941  1.0000
  H   H1254     1.0  0.58574  0.02764  0.97260  1.0000
  H   H1255     1.0  0.92076  0.30894  0.69836  1.0000
  H   H1256     1.0  0.55571  0.13579  0.81859  1.0000
  H   H1257     1.0  0.74332  0.23285  0.70827  1.0000
  H   H1258     1.0  0.91483  0.00720  0.93125  1.0000
  C   C711      1.0  0.55120  0.13957  0.88670  1.0000
  H   H1259     1.0  0.69230  0.14311  0.85991  1.0000
  H   H1260     1.0  0.75201  0.06677  0.82308  1.0000
  N   N41       1.0  0.98331  0.07930  0.76016  1.0000
  C   C712      1.0  0.72583  0.03733  0.75561  1.0000
  H   H1261     1.0  0.74110  0.11576  0.66419  1.0000
  H   H1262     1.0  0.66934  0.23770  0.66813  1.0000
  H   H1263     1.0  0.76970  0.07537  0.73713  1.0000
  C   C713      1.0  0.70331  0.25682  0.61819  1.0000
  C   C714      1.0  0.75277  0.00723  0.86155  1.0000
  H   H1264     1.0  0.49828  0.00569  0.83482  1.0000
  H   H1265     1.0  0.57138  0.11834  0.99266  1.0000
  H   H1266     1.0  0.69855  0.07608  0.75850  1.0000
  H   H1267     1.0  0.92190  0.15626  0.61257  1.0000
  H   H1268     1.0  0.51943  0.20493  0.59729  1.0000
  H   H1269     1.0  0.76672  0.06873  0.98768  1.0000
  H   H1270     1.0  0.95782  0.04787  0.78763  1.0000
  H   H1271     1.0  0.77492  0.05732  0.78986  1.0000
  C   C715      1.0  0.70438  0.14499  0.83628  1.0000
  C   C716      1.0  0.72816  0.11637  0.78993  1.0000
  H   H1272     1.0  0.68992  0.15562  0.81797  1.0000
  H   H1273     1.0  0.80036  0.10568  0.79267  1.0000
  H   H1274     1.0  0.49409  0.07649  0.74226  1.0000
  H   H1275     1.0  0.82995  0.23810  0.97652  1.0000
  C   C717      1.0  0.75540  0.10887  0.68485  1.0000
  C   C718      1.0  0.66429  0.02343  0.98224  1.0000
  H   H1276     1.0  0.52077  0.12523  0.83354  1.0000
  C   C719      1.0  0.67575  0.19880  0.63860  1.0000
  C   C720      1.0  0.80253  0.12175  0.52639  1.0000
  H   H1277     1.0  0.77754  0.11620  0.82677  1.0000
  C   C721      1.0  0.80793  0.08218  0.83738  1.0000
  H   H1278     1.0  0.68099  0.02694  0.74132  1.0000
  H   H1279     1.0  0.73369  0.04108  0.73012  1.0000
  H   H1280     1.0  0.52414  0.27003  0.57983  1.0000
  H   H1281     1.0  0.62840  0.27494  0.50663  1.0000
  C   C722      1.0  0.93345  0.24435  0.58726  1.0000
  H   H1282     1.0  0.53842  0.01036  0.79886  1.0000
  H   H1283     1.0  0.55375  0.24489  0.58603  1.0000
  H   H1284     1.0  0.80277  0.01695  0.50571  1.0000
  C   C723      1.0  0.73967  0.22177  0.64283  1.0000
  N   N42       1.0  0.52008  0.16241  0.80055  1.0000
  C   C724      1.0  0.72053  0.26320  0.67469  1.0000
  C   C725      1.0  0.53889  0.18918  0.79554  1.0000
  H   H1285     1.0  0.77201  0.12613  0.68913  1.0000
  H   H1286     1.0  0.66951  0.20743  0.61411  1.0000
  C   C726      1.0  0.85061  0.29345  0.99277  1.0000
  C   C727      1.0  0.69985  0.01645  0.75372  1.0000
  H   H1287     1.0  0.64108  0.06867  0.95338  1.0000
  C   C728      1.0  0.53316  0.20751  0.76428  1.0000
  C   C729      1.0  0.95946  0.08482  0.73511  1.0000
  C   C730      1.0  0.58187  0.04519  0.98989  1.0000
  H   H1288     1.0  0.72490  0.08113  0.95070  1.0000
  C   C731      1.0  0.53089  0.25000  0.59310  1.0000
  H   H1289     1.0  0.69039  0.11134  0.97291  1.0000
  H   H1290     1.0  0.53682  0.20431  0.81690  1.0000
  H   H1291     1.0  0.56239  0.18280  0.79446  1.0000
  C   C732      1.0  0.90805  0.25857  0.60558  1.0000
  H   H1292     1.0  0.72390  0.15892  0.84038  1.0000
  S   S168      1.0  0.64305  0.30128  0.67378  1.0000
  C   C733      1.0  0.97156  0.06107  0.85331  1.0000
  N   N43       1.0  0.96488  0.19719  0.58580  1.0000
  H   H1293     1.0  0.79908  0.06020  0.55641  1.0000
  H   H1294     1.0  0.72593  0.12500  0.72149  1.0000
  H   H1295     1.0  0.69875  0.24162  0.59753  1.0000
  H   H1296     1.0  0.53195  0.99994  0.72363  1.0000
  H   H1297     1.0  0.76016  0.23423  0.64764  1.0000
  N   N44       1.0  0.67467  0.05440  0.98708  1.0000
  H   H1298     1.0  0.53031  0.25431  0.62002  1.0000
  C   C734      1.0  0.83696  0.28272  0.95982  1.0000
  H   H1299     1.0  0.95752  0.04180  0.71012  1.0000
  H   H1300     1.0  0.50839  0.15555  0.74910  1.0000
  C   C735      1.0  0.76856  0.18641  0.60709  1.0000
  H   H1301     1.0  0.69217  0.18128  0.63563  1.0000
  H   H1302     1.0  0.90731  0.04606  0.68926  1.0000
  H   H1303     1.0  0.64223  0.11999  0.92117  1.0000
  C   C736      1.0  0.63636  0.29678  0.51120  1.0000
  H   H1304     1.0  0.87064  0.28055  0.99719  1.0000
  C   C737      1.0  0.53438  0.14457  0.82737  1.0000
  H   H1305     1.0  0.76671  0.08842  0.67763  1.0000
  C   C738      1.0  0.96768  0.16861  0.60387  1.0000
  H   H1306     1.0  0.92799  0.24442  0.56060  1.0000
  H   H1307     1.0  0.58534  0.00458  0.72406  1.0000
  H   H1308     1.0  0.55726  0.17763  0.85727  1.0000
  H   H1309     1.0  0.93804  0.18316  0.54473  1.0000
  C   C739      1.0  0.54018  0.16068  0.86042  1.0000
  H   H1310     1.0  0.71086  0.12419  0.77289  1.0000
  C   C740      1.0  0.78414  0.04136  0.55995  1.0000
  H   H1311     1.0  0.77120  0.17764  0.58170  1.0000
  C   C741      1.0  0.91927  0.06585  0.69748  1.0000
  C   C742      1.0  0.52006  0.14433  0.76942  1.0000
  C   C743      1.0  0.98298  0.17457  0.53071  1.0000
  H   H1312     1.0  0.72586  0.29357  0.73415  1.0000
  C   C744      1.0  0.93847  0.21270  0.59956  1.0000
  H   H1313     1.0  0.74012  0.20361  0.66099  1.0000
  H   H1314     1.0  0.94263  0.09980  0.74529  1.0000
  H   H1315     1.0  0.95122  0.08439  0.79886  1.0000
  H   H1316     1.0  0.98640  0.05538  0.87398  1.0000
  C   C745      1.0  0.66507  0.12216  0.93000  1.0000
  H   H1317     1.0  0.93158  0.04601  0.74298  1.0000
  H   H1318     1.0  0.76404  0.16791  0.62396  1.0000
  S   S169      1.0  0.62657  0.28389  0.57699  1.0000
  H   H1319     1.0  0.70747  0.24373  0.72203  1.0000
  H   H1320     1.0  0.91807  0.20060  0.59358  1.0000
  C   C746      1.0  0.94836  0.11821  0.61738  1.0000
  C   C747      1.0  0.72460  0.28065  0.60555  1.0000
  C   C748      1.0  0.71703  0.06641  0.77252  1.0000
  H   H1321     1.0  0.72035  0.08749  0.71002  1.0000
  H   H1322     1.0  0.70233  0.27906  0.67758  1.0000
  H   H1323     1.0  0.95289  0.25835  0.59123  1.0000
  H   H1324     1.0  0.76981  0.04606  0.58141  1.0000
  H   H1325     1.0  0.50306  0.29365  0.75345  1.0000
  H   H1326     1.0  0.88024  0.29158  0.66276  1.0000
  C   C749      1.0  0.55213  0.23493  0.76388  1.0000
  H   H1327     1.0  0.64037  0.16726  0.63686  1.0000
  C   C750      1.0  0.97412  0.20283  0.69461  1.0000
  H   H1328     1.0  0.56868  0.03755  0.73946  1.0000
  C   C751      1.0  0.86777  0.31177  0.66802  1.0000
  H   H1329     1.0  0.91737  0.02040  0.88920  1.0000
  H   H1330     1.0  0.52288  0.09835  0.72467  1.0000
  H   H1331     1.0  0.78942  0.19699  0.61442  1.0000
  C   C752      1.0  0.95996  0.19292  0.54933  1.0000
  C   C753      1.0  0.76548  0.03643  0.52916  1.0000
  C   C754      1.0  0.51095  0.22441  0.58427  1.0000
  C   C755      1.0  0.74350  0.20838  0.60783  1.0000
  H   H1332     1.0  0.91506  0.30450  0.98559  1.0000
  C   C756      1.0  0.84023  0.24979  0.95555  1.0000
  H   H1333     1.0  0.68196  0.26780  0.62274  1.0000
  H   H1334     1.0  0.96039  0.08184  0.85954  1.0000
  H   H1335     1.0  0.83337  0.99758  0.78081  1.0000
  H   H1336     1.0  0.75174  0.05616  0.52606  1.0000
  H   H1337     1.0  0.52340  0.09902  0.78597  1.0000
  C   C757      1.0  0.74112  0.27492  0.73142  1.0000
  C   C758      1.0  0.57234  0.01405  0.74455  1.0000
  C   C759      1.0  0.68780  0.22296  0.66156  1.0000
  C   C760      1.0  0.54333  0.99781  0.74761  1.0000
  C   C761      1.0  0.50225  0.09906  0.73906  1.0000
  H   H1338     1.0  0.53848  0.19472  0.74183  1.0000
  H   H1339     1.0  0.98736  0.15647  0.59595  1.0000
  H   H1340     1.0  0.74763  0.27332  0.60681  1.0000
  H   H1341     1.0  0.51037  0.21501  0.76317  1.0000
  C   C762      1.0  0.63695  0.30752  0.54382  1.0000
  H   H1342     1.0  0.92920  0.10348  0.61515  1.0000
  H   H1343     1.0  0.72244  0.30056  0.62104  1.0000
  H   H1344     1.0  0.95921  0.99297  0.83545  1.0000
  H   H1345     1.0  0.79724  0.02165  0.56557  1.0000
  C   C763      1.0  0.52466  0.01062  0.77618  1.0000
  H   H1346     1.0  0.64007  0.02306  0.97968  1.0000
  H   H1347     1.0  0.87169  0.16858  0.51319  1.0000
  H   H1348     1.0  0.72079  0.27042  0.55311  1.0000
  H   H1349     1.0  0.49670  0.05519  0.80889  1.0000
  H   H1350     1.0  0.81323  0.28773  0.95954  1.0000
  H   H1351     1.0  0.96858  0.09615  0.71307  1.0000
  H   H1352     1.0  0.52000  0.17118  0.86978  1.0000
  H   H1353     1.0  0.73981  0.27627  0.66692  1.0000
  H   H1354     1.0  0.96738  0.10747  0.60554  1.0000
  H   H1355     1.0  0.76200  0.28269  0.72065  1.0000
  H   H1356     1.0  0.96798  0.00168  0.89027  1.0000
  H   H1357     1.0  0.58511  0.01189  0.76763  1.0000
  H   H1358     1.0  0.73255  0.30711  0.56212  1.0000
  C   C764      1.0  0.86578  0.31691  0.79241  1.0000
  C   C765      1.0  0.71777  0.28925  0.57002  1.0000
  H   H1359     1.0  0.98834  0.22920  0.61521  1.0000
  H   H1360     1.0  0.95303  0.12173  0.64399  1.0000
  C   C766      1.0  0.90511  0.31363  0.96308  1.0000
  H   H1361     1.0  0.76210  0.03057  0.97707  1.0000
  H   H1362     1.0  0.98813  0.17800  0.79548  1.0000
  C   C767      1.0  0.70738  0.05546  0.99215  1.0000
  H   H1363     1.0  0.94639  0.31220  0.93678  1.0000
  C   C768      1.0  0.48963  0.17073  0.81177  1.0000
  H   H1364     1.0  0.70596  0.99678  0.73935  1.0000
  C   C769      1.0  0.98922  0.06445  0.82158  1.0000
  H   H1365     1.0  0.93739  0.29220  0.74859  1.0000
  C   C770      1.0  0.97708  0.30029  0.77484  1.0000
  C   C771      1.0  0.95607  0.30759  0.74685  1.0000
  H   H1366     1.0  0.96644  0.30388  0.79915  1.0000
  H   H1367     1.0  0.97421  0.99006  0.77780  1.0000
  H   H1368     1.0  0.98348  0.27705  0.77298  1.0000
  H   H1369     1.0  0.85518  0.31775  0.64566  1.0000
  H   H1370     1.0  0.89350  0.31916  0.72681  1.0000
  Fe  Fe85      1.0  0.66836  0.36629  0.40094  1.0000
  S   S170      1.0  0.63462  0.39672  0.37992  1.0000
  H   H1371     1.0  0.86860  0.35736  0.03240  1.0000
  Fe  Fe86      1.0  0.69559  0.35581  0.33164  1.0000
  S   S171      1.0  0.66281  0.38463  0.30640  1.0000
  H   H1372     1.0  0.88279  0.50484  0.14849  1.0000
  Fe  Fe87      1.0  0.67089  0.41502  0.34893  1.0000
  S   S172      1.0  0.67388  0.46344  0.33855  1.0000
  Fe  Fe88      1.0  0.62917  0.36394  0.33904  1.0000
  H   H1373     1.0  0.80548  0.52588  0.47721  1.0000
  S   S173      1.0  0.70544  0.38743  0.37261  1.0000
  Fe  Fe89      1.0  0.90857  0.38218  0.14971  1.0000
  S   S174      1.0  0.89078  0.41221  0.10929  1.0000
  Fe  Fe90      1.0  0.95578  0.37295  0.20350  1.0000
  H   H1374     1.0  0.70193  0.55730  0.45291  1.0000
  C   C772      1.0  0.74513  0.54807  0.42978  1.0000
  Fe  Fe91      1.0  0.89052  0.36265  0.22023  1.0000
  S   S175      1.0  0.85909  0.37158  0.26320  1.0000
  C   C773      1.0  0.82654  0.41179  0.18503  1.0000
  S   S176      1.0  0.91561  0.40111  0.20045  1.0000
  C   C774      1.0  0.89715  0.41077  0.06592  1.0000
  C   C775      1.0  0.87795  0.42548  0.04458  1.0000
  H   H1375     1.0  0.50569  0.50672  0.20408  1.0000
  C   C776      1.0  0.92102  0.39605  0.05227  1.0000
  H   H1376     1.0  0.85953  0.43712  0.05480  1.0000
  H   H1377     1.0  0.93615  0.38485  0.06828  1.0000
  C   C777      1.0  0.70864  0.47960  0.34086  1.0000
  C   C778      1.0  0.71180  0.50951  0.33466  1.0000
  C   C779      1.0  0.76054  0.47657  0.35213  1.0000
  C   C780      1.0  0.73317  0.46314  0.34915  1.0000
  H   H1378     1.0  0.77927  0.46372  0.35924  1.0000
  H   H1379     1.0  0.73108  0.44009  0.35352  1.0000
  C   C781      1.0  0.52170  0.37949  0.24182  1.0000
  C   C782      1.0  0.55001  0.39129  0.24429  1.0000
  C   C783      1.0  0.56908  0.38269  0.26985  1.0000
  C   C784      1.0  0.56019  0.36171  0.29277  1.0000
  H   H1380     1.0  0.69148  0.53939  0.39450  1.0000
  C   C785      1.0  0.51284  0.35877  0.26493  1.0000
  H   H1381     1.0  0.55721  0.40713  0.22637  1.0000
  H   H1382     1.0  0.59074  0.39196  0.27158  1.0000
  H   H1383     1.0  0.92548  0.52112  0.18217  1.0000
  H   H1384     1.0  0.95460  0.42694  0.12914  1.0000
  C   C786      1.0  0.76430  0.34434  0.28805  1.0000
  C   C787      1.0  0.77965  0.36401  0.30798  1.0000
  C   C788      1.0  0.80872  0.37156  0.30021  1.0000
  C   C789      1.0  0.82262  0.36031  0.27195  1.0000
  H   H1385     1.0  0.63774  0.52923  0.13973  1.0000
  H   H1386     1.0  0.76939  0.37283  0.32985  1.0000
  H   H1387     1.0  0.82062  0.38609  0.31637  1.0000
  C   C790      1.0  0.67818  0.64371  0.26547  1.0000
  H   H1388     1.0  0.79242  0.44046  0.20076  1.0000
  Fe  Fe92      1.0  0.56191  0.59224  0.14100  1.0000
  S   S177      1.0  0.59079  0.62462  0.16734  1.0000
  S   S178      1.0  0.58235  0.56704  0.09732  1.0000
  Fe  Fe93      1.0  0.51439  0.59694  0.19642  1.0000
  S   S179      1.0  0.54051  0.62927  0.22582  1.0000
  C   C791      1.0  0.72350  0.46812  0.44800  1.0000
  C   C792      1.0  0.71546  0.56454  0.43180  1.0000
  Fe  Fe94      1.0  0.57973  0.60157  0.21437  1.0000
  S   S180      1.0  0.61183  0.58498  0.25310  1.0000
  S   S181      1.0  0.52081  0.61898  0.14708  1.0000
  S   S182      1.0  0.55306  0.56747  0.18810  1.0000
  Fe  Fe95      1.0  0.81193  0.62816  0.38378  1.0000
  S   S183      1.0  0.84168  0.59461  0.36075  1.0000
  H   H1389     1.0  0.77778  0.48456  0.45530  1.0000
  Fe  Fe96      1.0  0.76916  0.62554  0.32432  1.0000
  S   S184      1.0  0.79585  0.59205  0.29748  1.0000
  H   H1390     1.0  0.89401  0.34793  0.08743  1.0000
  Fe  Fe97      1.0  0.79991  0.57157  0.34739  1.0000
  S   S185      1.0  0.79778  0.52288  0.35290  1.0000
  Fe  Fe98      1.0  0.83568  0.61772  0.31247  1.0000
  S   S186      1.0  0.87041  0.63129  0.27462  1.0000
  S   S187      1.0  0.77039  0.60318  0.37375  1.0000
  H   H1391     1.0  0.73789  0.57088  0.49403  1.0000
  H   H1392     1.0  0.63728  0.64208  0.23877  1.0000
  S   S188      1.0  0.80861  0.65318  0.33599  1.0000
  H   H1393     1.0  0.69891  0.62152  0.18924  1.0000
  C   C793      1.0  0.80710  0.34106  0.25165  1.0000
  C   C794      1.0  0.90292  0.61357  0.26089  1.0000
  C   C795      1.0  0.91399  0.58849  0.27595  1.0000
  C   C796      1.0  0.94050  0.57611  0.26484  1.0000
  C   C797      1.0  0.95662  0.58900  0.23912  1.0000
  C   C798      1.0  0.94537  0.61386  0.22388  1.0000
  C   C799      1.0  0.91859  0.62579  0.23444  1.0000
  H   H1394     1.0  0.90232  0.57880  0.29635  1.0000
  H   H1395     1.0  0.94886  0.55675  0.27668  1.0000
  H   H1396     1.0  0.95722  0.62381  0.20377  1.0000
  C   C800      1.0  0.88680  0.49602  0.17357  1.0000
  C   C801      1.0  0.64464  0.60250  0.26568  1.0000
  C   C802      1.0  0.65198  0.63049  0.25492  1.0000
  C   C803      1.0  0.53094  0.44482  0.30589  1.0000
  C   C804      1.0  0.69749  0.62910  0.28671  1.0000
  C   C805      1.0  0.69028  0.60098  0.29725  1.0000
  C   C806      1.0  0.66396  0.58782  0.28687  1.0000
  H   H1397     1.0  0.70477  0.58951  0.31377  1.0000
  H   H1398     1.0  0.65852  0.56615  0.29539  1.0000
  C   C807      1.0  0.58090  0.56931  0.05314  1.0000
  C   C808      1.0  0.56172  0.58790  0.03650  1.0000
  C   C809      1.0  0.98093  0.51320  0.15831  1.0000
  C   C810      1.0  0.59950  0.55142  0.03415  1.0000
  H   H1399     1.0  0.54718  0.60173  0.05052  1.0000
  H   H1400     1.0  0.61436  0.53683  0.04656  1.0000
  C   C811      1.0  0.73925  0.52298  0.33758  1.0000
  C   C812      1.0  0.76357  0.50653  0.34668  1.0000
  H   H1401     1.0  0.69291  0.52233  0.32797  1.0000
  H   H1402     1.0  0.74150  0.54611  0.33316  1.0000
  H   H1403     1.0  0.54440  0.50072  0.20404  1.0000
  S   S189      1.0  0.67306  0.36353  0.45755  1.0000
  S   S190      1.0  0.95058  0.35692  0.15111  1.0000
  N   N45       1.0  0.53129  0.49187  0.26986  1.0000
  C   C813      1.0  0.77829  0.33281  0.25996  1.0000
  H   H1404     1.0  0.49110  0.34970  0.26359  1.0000
  H   H1405     1.0  0.78364  0.62210  0.47234  1.0000
  C   C814      1.0  0.56407  0.49619  0.26921  1.0000
  C   C815      1.0  0.58278  0.47164  0.25337  1.0000
  Fe  Fe99      1.0  0.54932  0.64950  0.17646  1.0000
  C   C816      1.0  0.52295  0.54164  0.29917  1.0000
  H   H1406     1.0  0.69822  0.51344  0.09395  1.0000
  C   C817      1.0  0.61522  0.47602  0.26081  1.0000
  S   S191      1.0  0.93138  0.33577  0.22682  1.0000
  C   C818      1.0  0.97275  0.52995  0.12645  1.0000
  H   H1407     1.0  0.87908  0.47306  0.17453  1.0000
  C   C819      1.0  0.52292  0.48985  0.20673  1.0000
  H   H1408     1.0  0.53075  0.48867  0.32322  1.0000
  H   H1409     1.0  0.59021  0.51052  0.15845  1.0000
  H   H1410     1.0  0.97295  0.57307  0.14951  1.0000
  H   H1411     1.0  0.70993  0.57132  0.37887  1.0000
  H   H1412     1.0  0.56992  0.51643  0.25552  1.0000
  H   H1413     1.0  0.57241  0.50003  0.29466  1.0000
  H   H1414     1.0  0.58009  0.47158  0.22619  1.0000
  H   H1415     1.0  0.57665  0.44973  0.26208  1.0000
  C   C820      1.0  0.91924  0.49778  0.18214  1.0000
  H   H1416     1.0  0.49757  0.47793  0.30359  1.0000
  H   H1417     1.0  0.54676  0.54388  0.30354  1.0000
  C   C821      1.0  0.52181  0.47702  0.30135  1.0000
  C   C822      1.0  0.51843  0.43216  0.33772  1.0000
  S   S192      1.0  0.49752  0.39214  0.21074  1.0000
  H   H1418     1.0  0.62822  0.45902  0.24798  1.0000
  H   H1419     1.0  0.62273  0.49778  0.25236  1.0000
  H   H1420     1.0  0.61937  0.47406  0.28773  1.0000
  H   H1421     1.0  0.55496  0.44301  0.30791  1.0000
  H   H1422     1.0  0.49648  0.46938  0.24412  1.0000
  C   C823      1.0  0.69574  0.45187  0.43784  1.0000
  H   H1423     1.0  0.65371  0.65075  0.18164  1.0000
  H   H1424     1.0  0.91229  0.32956  0.03272  1.0000
  N   N46       1.0  0.97029  0.48207  0.16067  1.0000
  H   H1425     1.0  0.52277  0.43100  0.28547  1.0000
  C   C824      1.0  0.77585  0.50538  0.44153  1.0000
  H   H1426     1.0  0.49422  0.43279  0.33744  1.0000
  H   H1427     1.0  0.81967  0.41295  0.15881  1.0000
  C   C825      1.0  0.83114  0.50610  0.43947  1.0000
  C   C826      1.0  0.52004  0.47466  0.24072  1.0000
  H   H1428     1.0  0.96387  0.50223  0.22731  1.0000
  H   H1429     1.0  0.57575  0.32679  0.23614  1.0000
  C   C827      1.0  0.66804  0.64531  0.16044  1.0000
  H   H1430     1.0  0.52379  0.53390  0.24696  1.0000
  H   H1431     1.0  0.58846  0.64629  0.27896  1.0000
  H   H1432     1.0  0.53086  0.45314  0.23890  1.0000
  C   C828      1.0  0.73471  0.54394  0.24900  1.0000
  H   H1433     1.0  0.49757  0.45721  0.17992  1.0000
  H   H1434     1.0  0.67711  0.57506  0.40274  1.0000
  C   C829      1.0  0.98314  0.56160  0.12827  1.0000
  H   H1435     1.0  0.81689  0.39189  0.19620  1.0000
  H   H1436     1.0  0.92176  0.48874  0.20730  1.0000
  H   H1437     1.0  0.74212  0.45599  0.43710  1.0000
  H   H1438     1.0  0.59905  0.51949  0.20058  1.0000
  N   N47       1.0  0.74692  0.51985  0.44868  1.0000
  H   H1439     1.0  0.52478  0.33400  0.30799  1.0000
  C   C830      1.0  0.53195  0.34998  0.29019  1.0000
  H   H1440     1.0  0.85089  0.51896  0.44596  1.0000
  C   C831      1.0  0.82164  0.64963  0.47403  1.0000
  H   H1441     1.0  0.96617  0.44971  0.19938  1.0000
  C   C832      1.0  0.93757  0.47983  0.15737  1.0000
  H   H1442     1.0  0.93061  0.48559  0.13191  1.0000
  C   C833      1.0  0.74263  0.52373  0.48543  1.0000
  C   C834      1.0  0.62957  0.53628  0.16422  1.0000
  C   C835      1.0  0.60838  0.51296  0.17641  1.0000
  H   H1443     1.0  0.71913  0.52172  0.49212  1.0000
  N   N48       1.0  0.67855  0.56192  0.17861  1.0000
  C   C836      1.0  0.65494  0.54088  0.18904  1.0000
  C   C837      1.0  0.70082  0.56567  0.20593  1.0000
  C   C838      1.0  0.66422  0.59112  0.17267  1.0000
  C   C839      1.0  0.69299  0.55264  0.14683  1.0000
  C   C840      1.0  0.70663  0.52185  0.14611  1.0000
  C   C841      1.0  0.72325  0.50003  0.43537  1.0000
  C   C842      1.0  0.86478  0.33354  0.02987  1.0000
  C   C843      1.0  0.70753  0.53879  0.22788  1.0000
  C   C844      1.0  0.92559  0.39619  0.01782  1.0000
  C   C845      1.0  0.71696  0.51396  0.11136  1.0000
  H   H1444     1.0  0.80454  0.54416  0.43761  1.0000
  H   H1445     1.0  0.69330  0.45177  0.41059  1.0000
  H   H1446     1.0  0.64518  0.54831  0.21273  1.0000
  H   H1447     1.0  0.66391  0.51904  0.19457  1.0000
  H   H1448     1.0  0.72177  0.57407  0.19572  1.0000
  H   H1449     1.0  0.69341  0.58263  0.22379  1.0000
  H   H1450     1.0  0.64971  0.59681  0.19376  1.0000
  H   H1451     1.0  0.94424  0.38488  0.00765  1.0000
  H   H1452     1.0  0.67738  0.55435  0.12586  1.0000
  H   H1453     1.0  0.71100  0.56785  0.14045  1.0000
  H   H1454     1.0  0.69086  0.50484  0.15371  1.0000
  H   H1455     1.0  0.72606  0.52121  0.16237  1.0000
  H   H1456     1.0  0.61683  0.55662  0.16118  1.0000
  S   S193      1.0  0.72969  0.64729  0.30021  1.0000
  C   C846      1.0  0.51048  0.57209  0.29371  1.0000
  C   C847      1.0  0.68514  0.61740  0.16720  1.0000
  H   H1457     1.0  0.68890  0.53477  0.24487  1.0000
  H   H1458     1.0  0.71104  0.51868  0.21337  1.0000
  H   H1459     1.0  0.83111  0.50255  0.41236  1.0000
  H   H1460     1.0  0.72524  0.46738  0.47527  1.0000
  H   H1461     1.0  0.73214  0.56380  0.26444  1.0000
  H   H1462     1.0  0.93033  0.45687  0.16054  1.0000
  H   H1463     1.0  0.73337  0.52996  0.10247  1.0000
  H   H1464     1.0  0.72717  0.49202  0.11154  1.0000
  H   H1465     1.0  0.67617  0.46210  0.44909  1.0000
  H   H1466     1.0  0.61955  0.49162  0.17887  1.0000
  H   H1467     1.0  0.75085  0.54427  0.40341  1.0000
  H   H1468     1.0  0.70129  0.50895  0.44115  1.0000
  N   N49       1.0  0.81723  0.46364  0.26122  1.0000
  C   C848      1.0  0.83452  0.48964  0.24954  1.0000
  C   C849      1.0  0.82544  0.43770  0.24031  1.0000
  C   C850      1.0  0.78512  0.47047  0.25834  1.0000
  C   C851      1.0  0.82383  0.45668  0.29673  1.0000
  C   C852      1.0  0.85640  0.45155  0.30528  1.0000
  C   C853      1.0  0.83310  0.51727  0.27166  1.0000
  C   C854      1.0  0.76385  0.44483  0.26560  1.0000
  C   C855      1.0  0.81645  0.43907  0.20348  1.0000
  C   C856      1.0  0.86033  0.44735  0.34238  1.0000
  C   C857      1.0  0.85136  0.54197  0.25700  1.0000
  C   C858      1.0  0.73223  0.45363  0.25908  1.0000
  H   H1469     1.0  0.82695  0.49643  0.22468  1.0000
  H   H1470     1.0  0.85793  0.48380  0.24626  1.0000
  H   H1471     1.0  0.84950  0.43438  0.24070  1.0000
  H   H1472     1.0  0.81623  0.41738  0.25088  1.0000
  H   H1473     1.0  0.77999  0.47925  0.23346  1.0000
  H   H1474     1.0  0.77912  0.48818  0.27587  1.0000
  H   H1475     1.0  0.81527  0.47404  0.31321  1.0000
  H   H1476     1.0  0.81210  0.43661  0.30437  1.0000
  H   H1477     1.0  0.87030  0.47018  0.29783  1.0000
  H   H1478     1.0  0.86464  0.43164  0.29284  1.0000
  H   H1479     1.0  0.81034  0.52517  0.27417  1.0000
  H   H1480     1.0  0.84182  0.51297  0.29668  1.0000
  H   H1481     1.0  0.76536  0.43812  0.29180  1.0000
  H   H1482     1.0  0.76846  0.42549  0.25004  1.0000
  H   H1483     1.0  0.82646  0.45815  0.19116  1.0000
  H   H1484     1.0  0.88372  0.44341  0.34795  1.0000
  H   H1485     1.0  0.85316  0.46714  0.35602  1.0000
  H   H1486     1.0  0.84752  0.42826  0.35101  1.0000
  H   H1487     1.0  0.85075  0.56119  0.27369  1.0000
  H   H1488     1.0  0.87451  0.53522  0.25422  1.0000
  H   H1489     1.0  0.84262  0.54861  0.23263  1.0000
  H   H1490     1.0  0.72623  0.47302  0.27398  1.0000
  H   H1491     1.0  0.72893  0.45853  0.23255  1.0000
  H   H1492     1.0  0.71743  0.43547  0.26610  1.0000
  H   H1493     1.0  0.52666  0.44440  0.35950  1.0000
  C   C859      1.0  0.98880  0.47106  0.25462  1.0000
  C   C860      1.0  0.65741  0.34191  0.48984  1.0000
  S   S194      1.0  0.66117  0.33210  0.36153  1.0000
  H   H1494     1.0  0.52026  0.58217  0.27145  1.0000
  H   H1495     1.0  0.53657  0.45130  0.17912  1.0000
  C   C861      1.0  0.56110  0.58839  0.00159  1.0000
  H   H1496     1.0  0.85069  0.41001  0.18572  1.0000
  C   C862      1.0  0.51919  0.46814  0.17839  1.0000
  H   H1497     1.0  0.69964  0.61365  0.14575  1.0000
  C   C863      1.0  0.69753  0.56228  0.40004  1.0000
  S   S195      1.0  0.88073  0.34563  0.16942  1.0000
  H   H1498     1.0  0.87408  0.50917  0.19150  1.0000
  H   H1499     1.0  0.51250  0.53295  0.32178  1.0000
  H   H1500     1.0  0.72441  0.49894  0.40796  1.0000
  H   H1501     1.0  0.81733  0.33238  0.22971  1.0000
  H   H1502     1.0  0.64981  0.59017  0.15058  1.0000
  S   S196      1.0  0.58357  0.34832  0.32420  1.0000
  C   C864      1.0  0.80383  0.52276  0.45017  1.0000
  H   H1503     1.0  0.83236  0.48470  0.45209  1.0000
  H   H1504     1.0  0.69689  0.42888  0.44630  1.0000
  H   H1505     1.0  0.73812  0.52511  0.26562  1.0000
  H   H1506     1.0  0.94878  0.53025  0.12275  1.0000
  C   C865      1.0  0.98053  0.46839  0.19262  1.0000
  S   S197      1.0  0.72841  0.33225  0.29824  1.0000
  H   H1507     1.0  0.65446  0.64283  0.13789  1.0000
  H   H1508     1.0  0.77711  0.49939  0.41498  1.0000
  H   H1509     1.0  0.97706  0.57322  0.10529  1.0000
  H   H1510     1.0  0.76198  0.56376  0.43817  1.0000
  H   H1511     1.0  0.71995  0.58810  0.43606  1.0000
  H   H1512     1.0  0.75435  0.54643  0.23321  1.0000
  C   C866      1.0  0.51677  0.52147  0.26914  1.0000
  H   H1513     1.0  0.52539  0.40906  0.34011  1.0000
  S   S198      1.0  0.82619  0.65338  0.43029  1.0000
  H   H1514     1.0  0.62122  0.35563  0.24059  1.0000
  H   H1515     1.0  0.98325  0.52006  0.10448  1.0000
  H   H1516     1.0  0.52062  0.47977  0.15447  1.0000
  C   C867      1.0  0.88228  0.42524  0.01009  1.0000
  H   H1517     1.0  0.73999  0.32869  0.37220  1.0000
  H   H1518     1.0  0.83154  0.38244  0.01532  1.0000
  H   H1519     1.0  0.75557  0.32584  0.41278  1.0000
  C   C868      1.0  0.89494  0.32436  0.08137  1.0000
  H   H1520     1.0  0.72812  0.64876  0.40572  1.0000
  H   H1521     1.0  0.97272  0.52658  0.17911  1.0000
  H   H1522     1.0  0.97547  0.47335  0.10834  1.0000
  H   H1523     1.0  0.97020  0.45610  0.25944  1.0000
  H   H1524     1.0  0.51548  0.58619  0.31528  1.0000
  H   H1525     1.0  0.97686  0.64693  0.27263  1.0000
  H   H1526     1.0  0.91007  0.64470  0.22196  1.0000
  H   H1527     1.0  0.84622  0.32835  0.04667  1.0000
  C   C869      1.0  0.98376  0.46527  0.13240  1.0000
  C   C870      1.0  0.62193  0.33174  0.24465  1.0000
  C   C871      1.0  0.98345  0.48864  0.22327  1.0000
  C   C872      1.0  0.97816  0.43183  0.13203  1.0000
  C   C873      1.0  0.79875  0.63365  0.48813  1.0000
  H   H1528     1.0  0.77505  0.55955  0.49242  1.0000
  H   H1529     1.0  0.49262  0.51910  0.26680  1.0000
  H   H1530     1.0  0.75343  0.50563  0.49900  1.0000
  H   H1531     1.0  0.62089  0.32760  0.27157  1.0000
  H   H1532     1.0  0.49050  0.65227  0.08437  1.0000
  H   H1533     1.0  0.98597  0.42135  0.15498  1.0000
  H   H1534     1.0  0.64307  0.32346  0.23505  1.0000
  H   H1535     1.0  0.98591  0.42620  0.07930  1.0000
  H   H1536     1.0  0.81061  0.33370  0.00277  1.0000
  H   H1537     1.0  0.51431  0.52024  0.00081  1.0000
  C   C874      1.0  0.59907  0.55212  0.99923  1.0000
  H   H1538     1.0  0.89694  0.38728  0.71429  1.0000
  H   H1539     1.0  0.55761  0.36182  0.70866  1.0000
  S   S199      1.0  0.62224  0.37922  0.70722  1.0000
  H   H1540     1.0  0.64845  0.34439  0.57401  1.0000
  Fe  Fe100     1.0  0.88178  0.41724  0.90942  1.0000
  S   S200      1.0  0.84728  0.38492  0.89461  1.0000
  S   S201      1.0  0.91263  0.40909  0.95305  1.0000
  Fe  Fe101     1.0  0.87199  0.45411  0.84587  1.0000
  S   S202      1.0  0.83676  0.42396  0.82672  1.0000
  S   S203      1.0  0.89282  0.49426  0.82153  1.0000
  Fe  Fe102     1.0  0.82139  0.42443  0.87962  1.0000
  S   S204      1.0  0.77475  0.42846  0.89717  1.0000
  Fe  Fe103     1.0  0.86555  0.38659  0.84310  1.0000
  S   S205      1.0  0.88182  0.34490  0.81723  1.0000
  S   S206      1.0  0.85466  0.45671  0.89787  1.0000
  S   S207      1.0  0.90188  0.41685  0.85870  1.0000
  H   H1541     1.0  0.63888  0.64002  0.80240  1.0000
  N   N50       1.0  0.49285  0.63031  0.80762  1.0000
  N   N51       1.0  0.92728  0.35147  0.72123  1.0000
  H   H1542     1.0  0.97382  0.58298  0.72034  1.0000
  H   H1543     1.0  0.83628  0.49537  0.78747  1.0000
  C   C875      1.0  0.71343  0.49123  0.88519  1.0000
  C   C876      1.0  0.72984  0.46795  0.89796  1.0000
  C   C877      1.0  0.75563  0.45896  0.88234  1.0000
  C   C878      1.0  0.76492  0.47323  0.85384  1.0000
  H   H1544     1.0  0.69379  0.49831  0.89762  1.0000
  H   H1545     1.0  0.72248  0.45684  0.91994  1.0000
  H   H1546     1.0  0.78454  0.46618  0.84136  1.0000
  C   C879      1.0  0.61006  0.40167  0.74037  1.0000
  C   C880      1.0  0.59150  0.39143  0.76521  1.0000
  C   C881      1.0  0.58266  0.41019  0.79103  1.0000
  C   C882      1.0  0.59244  0.43928  0.79251  1.0000
  C   C883      1.0  0.61111  0.44940  0.76778  1.0000
  C   C884      1.0  0.61990  0.43069  0.74198  1.0000
  H   H1547     1.0  0.58399  0.36908  0.76456  1.0000
  H   H1548     1.0  0.56828  0.40209  0.81006  1.0000
  H   H1549     1.0  0.61871  0.47172  0.76842  1.0000
  H   H1550     1.0  0.63428  0.43883  0.72296  1.0000
  H   H1551     1.0  0.48969  0.41094  0.77400  1.0000
  H   H1552     1.0  0.98628  0.40271  0.82440  1.0000
  H   H1553     1.0  0.94161  0.40866  0.74473  1.0000
  H   H1554     1.0  0.98565  0.33800  0.69377  1.0000
  C   C885      1.0  0.57979  0.57060  0.98259  1.0000
  C   C886      1.0  0.94508  0.33952  0.74959  1.0000
  Fe  Fe104     1.0  0.60007  0.50716  0.83710  1.0000
  S   S208      1.0  0.62956  0.53286  0.80401  1.0000
  S   S209      1.0  0.58074  0.46217  0.82547  1.0000
  Fe  Fe105     1.0  0.60195  0.55418  0.89272  1.0000
  S   S210      1.0  0.63286  0.58263  0.86323  1.0000
  S   S211      1.0  0.57734  0.57194  0.93842  1.0000
  Fe  Fe106     1.0  0.60467  0.57308  0.81918  1.0000
  S   S212      1.0  0.58724  0.60651  0.78174  1.0000
  Fe  Fe107     1.0  0.65563  0.54047  0.85018  1.0000
  S   S213      1.0  0.70429  0.53636  0.84143  1.0000
  S   S214      1.0  0.57252  0.54648  0.84881  1.0000
  S   S215      1.0  0.62736  0.51273  0.88301  1.0000
  Fe  Fe108     1.0  0.84740  0.62975  0.70127  1.0000
  Fe  Fe109     1.0  0.60883  0.33292  0.69206  1.0000
  S   S216      1.0  0.83109  0.58897  0.72870  1.0000
  C   C887      1.0  0.67394  0.38757  0.80329  1.0000
  H   H1555     1.0  0.69151  0.45830  0.82124  1.0000
  S   S217      1.0  0.86936  0.62787  0.65170  1.0000
  C   C888      1.0  0.84968  0.56230  0.75286  1.0000
  C   C889      1.0  0.83512  0.53615  0.76068  1.0000
  C   C890      1.0  0.84794  0.51521  0.78159  1.0000
  C   C891      1.0  0.87572  0.51998  0.79484  1.0000
  C   C892      1.0  0.89058  0.54585  0.78652  1.0000
  C   C893      1.0  0.87764  0.56694  0.76578  1.0000
  H   H1556     1.0  0.81369  0.53201  0.75051  1.0000
  H   H1557     1.0  0.91214  0.54975  0.79644  1.0000
  H   H1558     1.0  0.88913  0.58691  0.76014  1.0000
  C   C894      1.0  0.68804  0.44016  0.80323  1.0000
  H   H1559     1.0  0.63290  0.41067  0.84725  1.0000
  H   H1560     1.0  0.49728  0.34193  0.70824  1.0000
  H   H1561     1.0  0.54599  0.60272  0.98917  1.0000
  H   H1562     1.0  0.54197  0.60028  0.83245  1.0000
  C   C895      1.0  0.88017  0.33543  0.97093  1.0000
  C   C896      1.0  0.72293  0.50571  0.85685  1.0000
  C   C897      1.0  0.74849  0.49632  0.84103  1.0000
  H   H1563     1.0  0.75554  0.50657  0.81853  1.0000
  H   H1564     1.0  0.52759  0.38981  0.74931  1.0000
  H   H1565     1.0  0.66685  0.37410  0.52718  1.0000
  S   S218      1.0  0.80700  0.64875  0.58757  1.0000
  H   H1566     1.0  0.55327  0.39951  0.69762  1.0000
  H   H1567     1.0  0.96763  0.51814  0.89975  1.0000
  C   C898      1.0  0.65805  0.35260  0.52248  1.0000
  C   C899      1.0  0.68412  0.65425  0.66122  1.0000
  H   H1568     1.0  0.96470  0.53116  0.83031  1.0000
  H   H1569     1.0  0.90179  0.34216  0.65585  1.0000
  H   H1570     1.0  0.88955  0.36550  0.74944  1.0000
  H   H1571     1.0  0.69996  0.49410  0.77524  1.0000
  H   H1572     1.0  0.76861  0.64580  0.85940  1.0000
  H   H1573     1.0  0.53242  0.37188  0.67637  1.0000
  C   C900      1.0  0.76050  0.59754  0.64634  1.0000
  H   H1574     1.0  0.67725  0.47370  0.74679  1.0000
  C   C901      1.0  0.64065  0.42964  0.89480  1.0000
  H   H1575     1.0  0.97419  0.42691  0.79194  1.0000
  H   H1576     1.0  0.92944  0.51132  0.94367  1.0000
  C   C902      1.0  0.97806  0.63095  0.72623  1.0000
  H   H1577     1.0  0.98752  0.54884  0.77948  1.0000
  H   H1578     1.0  0.65545  0.44557  0.90698  1.0000
  H   H1579     1.0  0.70865  0.42983  0.75525  1.0000
  C   C903      1.0  0.49118  0.50638  0.91988  1.0000
  C   C904      1.0  0.82962  0.37529  0.98925  1.0000
  H   H1580     1.0  0.91107  0.47670  0.94694  1.0000
  H   H1581     1.0  0.50626  0.44971  0.92935  1.0000
  H   H1582     1.0  0.77945  0.60046  0.66315  1.0000
  H   H1583     1.0  0.74653  0.57955  0.65561  1.0000
  H   H1584     1.0  0.76903  0.59138  0.62163  1.0000
  H   H1585     1.0  0.76803  0.36192  0.80898  1.0000
  H   H1586     1.0  0.96093  0.46405  0.83531  1.0000
  H   H1587     1.0  0.83781  0.64523  0.77682  1.0000
  H   H1588     1.0  0.65110  0.39507  0.79960  1.0000
  H   H1589     1.0  0.97376  0.44054  0.86635  1.0000
  H   H1590     1.0  0.73130  0.45047  0.78312  1.0000
  H   H1591     1.0  0.96307  0.47012  0.93316  1.0000
  H   H1592     1.0  0.52434  0.58601  0.72278  1.0000
  H   H1593     1.0  0.84819  0.38426  0.97498  1.0000
  C   C905      1.0  0.92253  0.39856  0.75696  1.0000
  H   H1594     1.0  0.76841  0.34648  0.84978  1.0000
  C   C906      1.0  0.90131  0.42305  0.76557  1.0000
  C   C907      1.0  0.98200  0.35995  0.64770  1.0000
  H   H1595     1.0  0.78789  0.62749  0.76332  1.0000
  H   H1596     1.0  0.73397  0.40220  0.79742  1.0000
  H   H1597     1.0  0.93305  0.37661  0.67665  1.0000
  H   H1598     1.0  0.82191  0.33673  0.96086  1.0000
  H   H1599     1.0  0.67179  0.36827  0.81967  1.0000
  H   H1600     1.0  0.70461  0.63146  0.87613  1.0000
  C   C908      1.0  0.72376  0.40329  0.82213  1.0000
  H   H1601     1.0  0.51460  0.51377  0.86047  1.0000
  C   C909      1.0  0.75093  0.62973  0.86371  1.0000
  H   H1602     1.0  0.77774  0.38425  0.84414  1.0000
  H   H1603     1.0  0.92992  0.38885  0.78057  1.0000
  C   C910      1.0  0.92930  0.32837  0.94318  1.0000
  C   C911      1.0  0.50787  0.61883  0.77711  1.0000
  H   H1604     1.0  0.67742  0.39271  0.74988  1.0000
  H   H1605     1.0  0.89455  0.43501  0.74306  1.0000
  H   H1606     1.0  0.88169  0.41400  0.77784  1.0000
  C   C912      1.0  0.93495  0.60294  0.70211  1.0000
  C   C913      1.0  0.88822  0.33675  0.67768  1.0000
  C   C914      1.0  0.90765  0.37520  0.73469  1.0000
  N   N52       1.0  0.77333  0.59313  0.82179  1.0000
  C   C915      1.0  0.74670  0.60957  0.83335  1.0000
  C   C916      1.0  0.76565  0.57379  0.79272  1.0000
  C   C917      1.0  0.78311  0.57375  0.84982  1.0000
  C   C918      1.0  0.79836  0.61317  0.81331  1.0000
  H   H1607     1.0  0.68006  0.33006  0.77669  1.0000
  N   N53       1.0  0.85676  0.32572  0.99477  1.0000
  C   C919      1.0  0.80789  0.55176  0.84165  1.0000
  C   C920      1.0  0.74162  0.58435  0.76861  1.0000
  C   C921      1.0  0.74014  0.56476  0.73810  1.0000
  H   H1608     1.0  0.87054  0.34138  0.94664  1.0000
  C   C922      1.0  0.50274  0.49418  0.85148  1.0000
  C   C923      1.0  0.81636  0.53397  0.87196  1.0000
  H   H1609     1.0  0.72895  0.59386  0.83951  1.0000
  H   H1610     1.0  0.73759  0.62331  0.81346  1.0000
  H   H1611     1.0  0.78552  0.56871  0.77810  1.0000
  H   H1612     1.0  0.75725  0.55249  0.80149  1.0000
  H   H1613     1.0  0.76425  0.56089  0.85940  1.0000
  H   H1614     1.0  0.79116  0.58702  0.87092  1.0000
  H   H1615     1.0  0.79865  0.38314  0.94925  1.0000
  H   H1616     1.0  0.81689  0.60052  0.80286  1.0000
  H   H1617     1.0  0.70834  0.37419  0.76738  1.0000
  H   H1618     1.0  0.55399  0.64775  0.88448  1.0000
  H   H1619     1.0  0.75618  0.61684  0.88602  1.0000
  H   H1620     1.0  0.66524  0.44264  0.79438  1.0000
  H   H1621     1.0  0.82787  0.56304  0.83303  1.0000
  H   H1622     1.0  0.80093  0.53613  0.82231  1.0000
  H   H1623     1.0  0.71995  0.58338  0.78093  1.0000
  H   H1624     1.0  0.74529  0.60691  0.76027  1.0000
  H   H1625     1.0  0.72173  0.57158  0.72215  1.0000
  H   H1626     1.0  0.76076  0.56636  0.72374  1.0000
  H   H1627     1.0  0.73651  0.54171  0.74539  1.0000
  H   H1628     1.0  0.91195  0.43875  0.78268  1.0000
  H   H1629     1.0  0.68108  0.39285  0.86799  1.0000
  C   C924      1.0  0.67105  0.34728  0.76044  1.0000
  H   H1630     1.0  0.95656  0.32493  0.66725  1.0000
  H   H1631     1.0  0.80729  0.62361  0.83596  1.0000
  C   C925      1.0  0.50529  0.60042  0.71824  1.0000
  H   H1632     1.0  0.82546  0.54835  0.89149  1.0000
  H   H1633     1.0  0.79718  0.52208  0.88193  1.0000
  H   H1634     1.0  0.83327  0.51775  0.86500  1.0000
  H   H1635     1.0  0.96422  0.35388  0.75455  1.0000
  H   H1636     1.0  0.94569  0.50191  0.86895  1.0000
  C   C926      1.0  0.68054  0.41412  0.85492  1.0000
  H   H1637     1.0  0.49371  0.52934  0.91139  1.0000
  H   H1638     1.0  0.72155  0.61728  0.69029  1.0000
  C   C927      1.0  0.50213  0.35217  0.73260  1.0000
  C   C928      1.0  0.56074  0.63065  0.86663  1.0000
  H   H1639     1.0  0.71792  0.35604  0.83065  1.0000
  C   C929      1.0  0.51652  0.51964  0.97354  1.0000
  H   H1640     1.0  0.92007  0.62131  0.70788  1.0000
  C   C930      1.0  0.90790  0.32790  0.70707  1.0000
  H   H1641     1.0  0.67619  0.34157  0.73444  1.0000
  H   H1642     1.0  0.72731  0.37683  0.86702  1.0000
  C   C931      1.0  0.53414  0.61743  0.84941  1.0000
  C   C932      1.0  0.51734  0.38176  0.72621  1.0000
  C   C933      1.0  0.68444  0.37693  0.76900  1.0000
  H   H1643     1.0  0.93954  0.34616  0.95781  1.0000
  H   H1644     1.0  0.50211  0.39843  0.71673  1.0000
  C   C934      1.0  0.70862  0.44734  0.77403  1.0000
  H   H1645     1.0  0.51505  0.47471  0.85932  1.0000
  H   H1646     1.0  0.97690  0.50144  0.80491  1.0000
  H   H1647     1.0  0.69262  0.64973  0.72524  1.0000
  S   S219      1.0  0.58020  0.32625  0.64740  1.0000
  C   C935      1.0  0.94655  0.36508  0.69531  1.0000
  H   H1648     1.0  0.51226  0.49564  0.91399  1.0000
  H   H1649     1.0  0.49842  0.43873  0.88757  1.0000
  H   H1650     1.0  0.52048  0.54222  0.96479  1.0000
  C   C936      1.0  0.79482  0.63347  0.52279  1.0000
  H   H1651     1.0  0.80311  0.41303  0.97752  1.0000
  C   C937      1.0  0.92198  0.49191  0.92958  1.0000
  H   H1652     1.0  0.73584  0.42104  0.83493  1.0000
  H   H1653     1.0  0.92222  0.58236  0.70344  1.0000
  C   C938      1.0  0.51638  0.64113  0.83087  1.0000
  H   H1654     1.0  0.96058  0.38227  0.70637  1.0000
  C   C939      1.0  0.96014  0.60208  0.72672  1.0000
  H   H1655     1.0  0.71496  0.48080  0.73695  1.0000
  C   C940      1.0  0.94786  0.47665  0.91328  1.0000
  H   H1656     1.0  0.82579  0.33947  0.78187  1.0000
  C   C941      1.0  0.64888  0.42590  0.85854  1.0000
  C   C942      1.0  0.81411  0.64847  0.54404  1.0000
  H   H1657     1.0  0.90583  0.49877  0.91071  1.0000
  H   H1658     1.0  0.93184  0.33966  0.77266  1.0000
  H   H1659     1.0  0.51311  0.62153  0.70813  1.0000
  H   H1660     1.0  0.92041  0.33765  0.91998  1.0000
  H   H1661     1.0  0.64632  0.44753  0.84675  1.0000
  H   H1662     1.0  0.76967  0.53479  0.54675  1.0000
  H   H1663     1.0  0.98676  0.60490  0.78591  1.0000
  H   H1664     1.0  0.61797  0.43805  0.89657  1.0000
  H   H1665     1.0  0.89041  0.35579  0.98008  1.0000
  H   H1666     1.0  0.76034  0.57280  0.54891  1.0000
  H   H1667     1.0  0.73172  0.54583  0.54827  1.0000
  H   H1668     1.0  0.51919  0.33835  0.74414  1.0000
  H   H1669     1.0  0.64179  0.40846  0.90791  1.0000
  C   C943      1.0  0.80169  0.38891  0.97565  1.0000
  H   H1670     1.0  0.78238  0.38147  0.98990  1.0000
  H   H1671     1.0  0.98368  0.63590  0.70005  1.0000
  H   H1672     1.0  0.67569  0.63302  0.67062  1.0000
  H   H1673     1.0  0.69508  0.42883  0.86928  1.0000
  H   H1674     1.0  0.53574  0.50598  0.96723  1.0000
  C   C944      1.0  0.75366  0.55140  0.53848  1.0000
  H   H1675     1.0  0.95039  0.59845  0.75142  1.0000
  C   C945      1.0  0.96775  0.34454  0.67695  1.0000
  C   C946      1.0  0.76330  0.36637  0.83538  1.0000
  H   H1676     1.0  0.94330  0.60546  0.67656  1.0000
  H   H1677     1.0  0.51213  0.40373  0.82887  1.0000
  C   C947      1.0  0.54159  0.37846  0.70064  1.0000
  C   C948      1.0  0.69956  0.47573  0.75728  1.0000
  H   H1678     1.0  0.87425  0.35568  0.68376  1.0000
  N   N54       1.0  0.69180  0.41100  0.82005  1.0000
  C   C949      1.0  0.73119  0.37446  0.84011  1.0000
  C   C950      1.0  0.96273  0.49687  0.88766  1.0000
  H   H1679     1.0  0.52171  0.63603  0.76578  1.0000
  H   H1680     1.0  0.93949  0.45661  0.90121  1.0000
  C   C951      1.0  0.60219  0.64076  0.76939  1.0000
  H   H1681     1.0  0.52065  0.60678  0.86866  1.0000
  C   C952      1.0  0.74300  0.62579  0.64360  1.0000
  H   H1682     1.0  0.72475  0.62167  0.62630  1.0000
  C   C953      1.0  0.73223  0.63610  0.67783  1.0000
  H   H1683     1.0  0.77653  0.62185  0.53323  1.0000
  H   H1684     1.0  0.52355  0.60136  0.78360  1.0000
  C   C954      1.0  0.82870  0.34153  0.98666  1.0000
  H   H1685     1.0  0.64695  0.34777  0.76329  1.0000
  H   H1686     1.0  0.75251  0.64053  0.69183  1.0000
  C   C955      1.0  0.64755  0.33578  0.54918  1.0000
  H   H1687     1.0  0.57253  0.61338  0.88033  1.0000
  H   H1688     1.0  0.61350  0.53816  0.98521  1.0000
  C   C956      1.0  0.72299  0.64669  0.87117  1.0000
  H   H1689     1.0  0.75788  0.64237  0.63304  1.0000
  H   H1690     1.0  0.50124  0.39639  0.92411  1.0000
  C   C957      1.0  0.98429  0.51950  0.82108  1.0000
  H   H1691     1.0  0.49094  0.59000  0.69955  1.0000
  H   H1692     1.0  0.68774  0.65050  0.63453  1.0000
  C   C958      1.0  0.79197  0.63730  0.78788  1.0000
  H   H1693     1.0  0.62656  0.64930  0.64029  1.0000
  H   H1694     1.0  0.96529  0.36645  0.62932  1.0000
  C   C959      1.0  0.62776  0.65209  0.78330  1.0000
  H   H1695     1.0  0.52633  0.49555  0.80508  1.0000
  C   C960      1.0  0.90617  0.41057  0.99645  1.0000
  H   H1696     1.0  0.96272  0.64843  0.73405  1.0000
  H   H1697     1.0  0.53260  0.65466  0.81722  1.0000
  H   H1698     1.0  0.77314  0.65079  0.79537  1.0000
  C   C961      1.0  0.98067  0.45892  0.85027  1.0000
  H   H1699     1.0  0.86724  0.43659  0.99409  1.0000
  H   H1700     1.0  0.56815  0.64859  0.73377  1.0000
  H   H1701     1.0  0.57601  0.64016  0.84828  1.0000
  C   C962      1.0  0.50334  0.49545  0.81379  1.0000
  H   H1702     1.0  0.50330  0.35869  0.79536  1.0000
  H   H1703     1.0  0.97866  0.64219  0.78944  1.0000
  H   H1704     1.0  0.49216  0.47623  0.80289  1.0000
  H   H1705     1.0  0.49260  0.51562  0.80486  1.0000
  C   C963      1.0  0.75304  0.55305  0.50084  1.0000
  Fe  Fe110     1.0  0.65637  0.84080  0.38854  1.0000
  S   S220      1.0  0.62802  0.87454  0.36381  1.0000
  S   S221      1.0  0.63642  0.81666  0.43278  1.0000
  Fe  Fe111     1.0  0.70233  0.84393  0.33261  1.0000
  S   S222      1.0  0.67715  0.87769  0.30486  1.0000
  S   S223      1.0  0.74160  0.82133  0.30908  1.0000
  Fe  Fe112     1.0  0.67040  0.89810  0.35451  1.0000
  S   S224      1.0  0.67192  0.94725  0.35795  1.0000
  Fe  Fe113     1.0  0.63692  0.85152  0.31597  1.0000
  S   S225      1.0  0.60602  0.83763  0.27433  1.0000
  S   S226      1.0  0.69841  0.86609  0.38229  1.0000
  S   S227      1.0  0.66254  0.81600  0.34088  1.0000
  S   S228      1.0  0.54924  0.69830  0.17085  1.0000
  Fe  Fe114     1.0  0.91127  0.87009  0.14132  1.0000
  S   S229      1.0  0.88062  0.83945  0.16744  1.0000
  S   S230      1.0  0.89400  0.89021  0.09301  1.0000
  Fe  Fe115     1.0  0.95444  0.86926  0.20102  1.0000
  S   S231      1.0  0.92625  0.83902  0.23074  1.0000
  H   H1706     1.0  0.53637  0.77329  0.33842  1.0000
  Fe  Fe116     1.0  0.92114  0.81544  0.18245  1.0000
  S   S232      1.0  0.92167  0.76653  0.17815  1.0000
  Fe  Fe117     1.0  0.88800  0.86579  0.21341  1.0000
  S   S233      1.0  0.85233  0.88536  0.24628  1.0000
  S   S234      1.0  0.95158  0.84398  0.15330  1.0000
  S   S235      1.0  0.91658  0.89811  0.18684  1.0000
  C   C964      1.0  0.89727  0.88902  0.04895  1.0000
  C   C965      1.0  0.92045  0.87520  0.03269  1.0000
  H   H1707     1.0  0.89877  0.95144  0.29485  1.0000
  C   C966      1.0  0.87602  0.90319  0.02968  1.0000
  H   H1708     1.0  0.93719  0.86455  0.04700  1.0000
  H   H1709     1.0  0.85804  0.91407  0.04182  1.0000
  C   C967      1.0  0.95589  0.75041  0.18438  1.0000
  C   C968      1.0  0.93188  0.78718  0.06618  1.0000
  C   C969      1.0  0.51322  0.74519  0.17898  1.0000
  C   C970      1.0  0.51565  0.71477  0.18000  1.0000
  C   C971      1.0  0.90344  0.70445  0.34162  1.0000
  C   C972      1.0  0.95965  0.72091  0.17675  1.0000
  H   H1710     1.0  0.92287  0.71694  0.34951  1.0000
  H   H1711     1.0  0.53213  0.75833  0.17309  1.0000
  C   C973      1.0  0.73527  0.66652  0.42256  1.0000
  H   H1712     1.0  0.94148  0.70831  0.16732  1.0000
  H   H1713     1.0  0.69338  0.90141  0.11523  1.0000
  C   C974      1.0  0.71166  0.86632  0.14499  1.0000
  C   C975      1.0  0.70635  0.96387  0.35337  1.0000
  C   C976      1.0  0.57694  0.72041  0.29521  1.0000
  C   C977      1.0  0.75925  0.96147  0.35053  1.0000
  C   C978      1.0  0.73205  0.94746  0.35347  1.0000
  H   H1714     1.0  0.77910  0.94873  0.35101  1.0000
  H   H1715     1.0  0.73099  0.92404  0.35613  1.0000
  C   C979      1.0  0.51757  0.87586  0.24082  1.0000
  C   C980      1.0  0.53445  0.89055  0.26471  1.0000
  C   C981      1.0  0.56138  0.87905  0.27560  1.0000
  C   C982      1.0  0.57207  0.85309  0.26209  1.0000
  C   C983      1.0  0.55547  0.83881  0.23771  1.0000
  C   C984      1.0  0.52820  0.84979  0.22752  1.0000
  H   H1716     1.0  0.52654  0.91080  0.27505  1.0000
  H   H1717     1.0  0.57403  0.89035  0.29414  1.0000
  H   H1718     1.0  0.56388  0.81926  0.22638  1.0000
  C   C985      1.0  0.64375  0.81466  0.47608  1.0000
  C   C986      1.0  0.77270  0.83935  0.29262  1.0000
  C   C987      1.0  0.77768  0.86909  0.29776  1.0000
  C   C988      1.0  0.80212  0.88280  0.28342  1.0000
  C   C989      1.0  0.82218  0.86686  0.26426  1.0000
  C   C990      1.0  0.81737  0.83703  0.25941  1.0000
  C   C991      1.0  0.79273  0.82340  0.27347  1.0000
  H   H1719     1.0  0.76265  0.88154  0.31276  1.0000
  H   H1720     1.0  0.80542  0.90592  0.28716  1.0000
  H   H1721     1.0  0.83254  0.82452  0.24464  1.0000
  H   H1722     1.0  0.78910  0.80040  0.26928  1.0000
  H   H1723     1.0  0.89024  0.68598  0.24764  1.0000
  H   H1724     1.0  0.71616  0.67480  0.43657  1.0000
  C   C992      1.0  0.51817  0.97743  0.17398  1.0000
  H   H1725     1.0  0.75891  0.92179  0.22967  1.0000
  H   H1726     1.0  0.91961  0.96560  0.18570  1.0000
  H   H1727     1.0  0.56301  0.80414  0.37807  1.0000
  C   C993      1.0  0.71781  0.84077  0.21511  1.0000
  C   C994      1.0  0.75993  0.87172  0.19860  1.0000
  C   C995      1.0  0.68467  0.83652  0.22145  1.0000
  H   H1728     1.0  0.77269  0.87408  0.22183  1.0000
  H   H1729     1.0  0.67593  0.85236  0.23944  1.0000
  C   C996      1.0  0.77331  0.84446  0.18160  1.0000
  C   C997      1.0  0.80402  0.85075  0.16884  1.0000
  C   C998      1.0  0.67842  0.80616  0.23513  1.0000
  H   H1730     1.0  0.72999  0.83332  0.23736  1.0000
  H   H1731     1.0  0.72335  0.82472  0.19567  1.0000
  C   C999      1.0  0.97694  0.71695  0.07425  1.0000
  H   H1732     1.0  0.88764  0.70021  0.39189  1.0000
  H   H1733     1.0  0.85978  0.69595  0.36105  1.0000
  H   H1734     1.0  0.56049  0.92545  0.33567  1.0000
  H   H1735     1.0  0.51249  0.77340  0.24691  1.0000
  H   H1736     1.0  0.77493  0.82641  0.19975  1.0000
  H   H1737     1.0  0.76016  0.83658  0.16054  1.0000
  H   H1738     1.0  0.80348  0.86757  0.14921  1.0000
  H   H1739     1.0  0.81830  0.85848  0.18919  1.0000
  H   H1740     1.0  0.57033  0.75674  0.35043  1.0000
  H   H1741     1.0  0.51951  0.96380  0.19651  1.0000
  H   H1742     1.0  0.95576  0.96498  0.20283  1.0000
  C   C1000     1.0  0.71018  0.88347  0.17780  1.0000
  H   H1743     1.0  0.59429  0.80547  0.35131  1.0000
  H   H1744     1.0  0.69846  0.89342  0.24007  1.0000
  H   H1745     1.0  0.83915  0.73445  0.20219  1.0000
  H   H1746     1.0  0.67957  0.75189  0.28221  1.0000
  H   H1747     1.0  0.67226  0.83892  0.19810  1.0000
  C   C1001     1.0  0.87621  0.95922  0.28988  1.0000
  H   H1748     1.0  0.96595  0.81563  0.02084  1.0000
  C   C1002     1.0  0.84087  0.66464  0.49528  1.0000
  H   H1749     1.0  0.59115  0.92900  0.36366  1.0000
  H   H1750     1.0  0.84833  0.69699  0.21075  1.0000
  C   C1003     1.0  0.85941  0.95686  0.32284  1.0000
  H   H1751     1.0  0.87414  0.73185  0.37062  1.0000
  H   H1752     1.0  0.74318  0.92620  0.28737  1.0000
  H   H1753     1.0  0.94899  0.80056  0.29248  1.0000
  C   C1004     1.0  0.86048  0.92579  0.33626  1.0000
  H   H1754     1.0  0.66686  0.87500  0.12965  1.0000
  N   N55       1.0  0.72754  0.87122  0.20608  1.0000
  H   H1755     1.0  0.70724  0.93777  0.27468  1.0000
  C   C1005     1.0  0.50411  0.82028  0.08866  1.0000
  H   H1756     1.0  0.72414  0.93489  0.21538  1.0000
  H   H1757     1.0  0.71766  0.90593  0.17199  1.0000
  H   H1758     1.0  0.68683  0.88589  0.18496  1.0000
  N   N56       1.0  0.73748  0.73104  0.35888  1.0000
  C   C1006     1.0  0.77023  0.73225  0.35495  1.0000
  C   C1007     1.0  0.72867  0.70317  0.37618  1.0000
  C   C1008     1.0  0.72429  0.73076  0.32465  1.0000
  C   C1009     1.0  0.72574  0.75749  0.37667  1.0000
  C   C1010     1.0  0.73729  0.76308  0.41191  1.0000
  C   C1011     1.0  0.78262  0.75915  0.33657  1.0000
  C   C1012     1.0  0.95355  0.74047  0.08218  1.0000
  C   C1013     1.0  0.74957  0.69117  0.40312  1.0000
  C   C1014     1.0  0.49125  0.69790  0.18798  1.0000
  C   C1015     1.0  0.72668  0.79251  0.42497  1.0000
  C   C1016     1.0  0.81586  0.75756  0.33399  1.0000
  C   C1017     1.0  0.50919  0.76729  0.27305  1.0000
  H   H1759     1.0  0.77781  0.71238  0.34158  1.0000
  H   H1760     1.0  0.78148  0.73165  0.37914  1.0000
  H   H1761     1.0  0.70645  0.70549  0.38704  1.0000
  H   H1762     1.0  0.72704  0.68494  0.35805  1.0000
  H   H1763     1.0  0.52244  0.72285  0.26589  1.0000
  H   H1764     1.0  0.72682  0.75248  0.31279  1.0000
  H   H1765     1.0  0.72948  0.77751  0.36183  1.0000
  H   H1766     1.0  0.70165  0.75610  0.37918  1.0000
  H   H1767     1.0  0.76145  0.76327  0.41279  1.0000
  H   H1768     1.0  0.72872  0.74618  0.42888  1.0000
  H   H1769     1.0  0.77402  0.76045  0.31108  1.0000
  H   H1770     1.0  0.77714  0.77955  0.34993  1.0000
  H   H1771     1.0  0.61655  0.96309  0.32522  1.0000
  H   H1772     1.0  0.96279  0.78580  0.12340  1.0000
  H   H1773     1.0  0.76953  0.68213  0.39134  1.0000
  H   H1774     1.0  0.75664  0.70806  0.42090  1.0000
  H   H1775     1.0  0.85860  0.67717  0.48485  1.0000
  H   H1776     1.0  0.98942  0.68473  0.17562  1.0000
  C   C1018     1.0  0.75657  0.96821  0.44467  1.0000
  H   H1777     1.0  0.73436  0.79572  0.45070  1.0000
  H   H1778     1.0  0.73536  0.81056  0.40960  1.0000
  H   H1779     1.0  0.70243  0.79345  0.42495  1.0000
  H   H1780     1.0  0.82412  0.77691  0.32046  1.0000
  H   H1781     1.0  0.82582  0.75746  0.35896  1.0000
  H   H1782     1.0  0.82258  0.73761  0.32040  1.0000
  H   H1783     1.0  0.73828  0.92617  0.43133  1.0000
  H   H1784     1.0  0.73079  0.87976  0.25845  1.0000
  H   H1785     1.0  0.54476  0.97986  0.12857  1.0000
  N   N57       1.0  0.56137  0.74626  0.28055  1.0000
  C   C1019     1.0  0.56948  0.75029  0.24483  1.0000
  C   C1020     1.0  0.57019  0.77323  0.29944  1.0000
  H   H1786     1.0  0.55099  0.68449  0.27376  1.0000
  H   H1787     1.0  0.88331  0.91944  0.34192  1.0000
  C   C1021     1.0  0.60255  0.75338  0.23741  1.0000
  H   H1788     1.0  0.65681  0.71996  0.28584  1.0000
  H   H1789     1.0  0.56860  0.71603  0.32047  1.0000
  C   C1022     1.0  0.60797  0.75677  0.20045  1.0000
  H   H1790     1.0  0.50085  0.98463  0.10801  1.0000
  H   H1791     1.0  0.55895  0.77012  0.23483  1.0000
  H   H1792     1.0  0.56063  0.73219  0.22954  1.0000
  H   H1793     1.0  0.50791  0.67767  0.11212  1.0000
  H   H1794     1.0  0.59435  0.77556  0.29978  1.0000
  H   H1795     1.0  0.58810  0.95791  0.29653  1.0000
  H   H1796     1.0  0.83610  0.96267  0.31967  1.0000
  H   H1797     1.0  0.56216  0.79311  0.28679  1.0000
  C   C1023     1.0  0.56990  0.93851  0.35615  1.0000
  H   H1798     1.0  0.61168  0.77298  0.24969  1.0000
  H   H1799     1.0  0.61490  0.73404  0.24579  1.0000
  H   H1800     1.0  0.87487  0.69785  0.30106  1.0000
  H   H1801     1.0  0.60081  0.79809  0.48708  1.0000
  H   H1802     1.0  0.81752  0.98540  0.46189  1.0000
  C   C1024     1.0  0.69133  0.72273  0.32234  1.0000
  H   H1803     1.0  0.85133  0.91012  0.31811  1.0000
  H   H1804     1.0  0.59648  0.77629  0.19087  1.0000
  H   H1805     1.0  0.63170  0.75941  0.19582  1.0000
  H   H1806     1.0  0.60024  0.73716  0.18689  1.0000
  C   C1025     1.0  0.98683  0.70752  0.18134  1.0000
  H   H1807     1.0  0.74829  0.92937  0.47422  1.0000
  H   H1808     1.0  0.68353  0.66538  0.25707  1.0000
  C   C1026     1.0  0.68944  0.87793  0.12019  1.0000
  H   H1809     1.0  0.58195  0.98230  0.36765  1.0000
  H   H1810     1.0  0.96544  0.76081  0.02115  1.0000
  H   H1811     1.0  0.93663  0.98623  0.25545  1.0000
  C   C1027     1.0  0.67090  0.82194  0.48972  1.0000
  H   H1812     1.0  0.51502  0.77580  0.09879  1.0000
  H   H1813     1.0  0.67787  0.73563  0.33969  1.0000
  C   C1028     1.0  0.90890  0.78622  0.09430  1.0000
  H   H1814     1.0  0.98611  0.91911  0.10854  1.0000
  C   C1029     1.0  0.57013  0.80341  0.35190  1.0000
  H   H1815     1.0  0.51369  0.78676  0.28846  1.0000
  H   H1816     1.0  0.82373  0.97991  0.40152  1.0000
  C   C1030     1.0  0.88047  0.80081  0.08366  1.0000
  H   H1817     1.0  0.95157  0.68103  0.23334  1.0000
  H   H1818     1.0  0.65457  0.80354  0.23889  1.0000
  H   H1819     1.0  0.58332  0.69309  0.25060  1.0000
  H   H1820     1.0  0.98143  0.78864  0.31366  1.0000
  H   H1821     1.0  0.92135  0.77823  0.04350  1.0000
  H   H1822     1.0  0.93562  0.81075  0.06146  1.0000
  C   C1031     1.0  0.97928  0.76647  0.19708  1.0000
  C   C1032     1.0  0.96529  0.78275  0.29437  1.0000
  H   H1823     1.0  0.68802  0.83016  0.47394  1.0000
  C   C1033     1.0  0.73068  0.93736  0.26769  1.0000
  H   H1824     1.0  0.60058  0.72524  0.29854  1.0000
  H   H1825     1.0  0.73866  0.96016  0.26615  1.0000
  H   H1826     1.0  0.91692  0.79826  0.11618  1.0000
  H   H1827     1.0  0.90363  0.76358  0.10174  1.0000
  H   H1828     1.0  0.70705  0.84283  0.14855  1.0000
  H   H1829     1.0  0.85810  0.98666  0.42162  1.0000
  C   C1034     1.0  0.97774  0.77245  0.04094  1.0000
  H   H1830     1.0  0.87282  0.71954  0.18668  1.0000
  H   H1831     1.0  0.84739  0.92443  0.35925  1.0000
  C   C1035     1.0  0.95043  0.75394  0.30327  1.0000
  H   H1832     1.0  0.77279  0.97832  0.49303  1.0000
  H   H1833     1.0  0.86691  0.94277  0.27260  1.0000
  H   H1834     1.0  0.81358  0.83053  0.15833  1.0000
  H   H1835     1.0  0.73359  0.86898  0.13377  1.0000
  C   C1036     1.0  0.49726  0.67536  0.08762  1.0000
  H   H1836     1.0  0.87084  0.78935  0.06209  1.0000
  H   H1837     1.0  0.86453  0.80010  0.10427  1.0000
  H   H1838     1.0  0.88437  0.82402  0.07721  1.0000
  H   H1839     1.0  0.51335  0.68078  0.06808  1.0000
  H   H1840     1.0  0.77867  0.96082  0.43728  1.0000
  H   H1841     1.0  0.56041  0.82227  0.33876  1.0000
  H   H1842     1.0  0.55204  0.97875  0.33909  1.0000
  H   H1843     1.0  0.76553  0.89123  0.18356  1.0000
  H   H1844     1.0  0.88040  0.75181  0.23549  1.0000
  H   H1845     1.0  0.85626  0.72920  0.25941  1.0000
  C   C1037     1.0  0.73864  0.94111  0.45295  1.0000
  H   H1846     1.0  0.82327  0.96056  0.25838  1.0000
  H   H1847     1.0  0.86942  0.97105  0.34180  1.0000
  C   C1038     1.0  0.73512  0.92179  0.23467  1.0000
  H   H1848     1.0  0.69146  0.86575  0.09659  1.0000
  N   N58       1.0  0.91470  0.71502  0.27933  1.0000
  C   C1039     1.0  0.93740  0.69151  0.28376  1.0000
  C   C1040     1.0  0.89250  0.71387  0.30704  1.0000
  C   C1041     1.0  0.89875  0.70870  0.24748  1.0000
  C   C1042     1.0  0.92810  0.74500  0.27646  1.0000
  H   H1849     1.0  0.97706  0.81114  0.09512  1.0000
  H   H1850     1.0  0.97711  0.78075  0.27054  1.0000
  C   C1043     1.0  0.87274  0.72913  0.23938  1.0000
  C   C1044     1.0  0.72220  0.89044  0.23584  1.0000
  H   H1851     1.0  0.68343  0.66371  0.15663  1.0000
  H   H1852     1.0  0.55477  0.93731  0.37751  1.0000
  H   H1853     1.0  0.52600  0.82572  0.07868  1.0000
  C   C1045     1.0  0.85736  0.71933  0.20779  1.0000
  C   C1046     1.0  0.67955  0.72819  0.28765  1.0000
  H   H1854     1.0  0.94905  0.69399  0.30754  1.0000
  H   H1855     1.0  0.88131  0.73527  0.30972  1.0000
  H   H1856     1.0  0.97643  0.78924  0.20329  1.0000
  C   C1047     1.0  0.87972  0.70845  0.36777  1.0000
  H   H1857     1.0  0.91379  0.71010  0.22603  1.0000
  H   H1858     1.0  0.93885  0.74756  0.25202  1.0000
  H   H1859     1.0  0.91086  0.76204  0.27672  1.0000
  H   H1860     1.0  0.90922  0.68091  0.34124  1.0000
  H   H1861     1.0  0.93920  0.75715  0.32720  1.0000
  H   H1862     1.0  0.96798  0.73759  0.30612  1.0000
  H   H1863     1.0  0.68940  0.80332  0.25934  1.0000
  C   C1048     1.0  0.52888  0.74108  0.28258  1.0000
  H   H1864     1.0  0.57437  0.96276  0.19382  1.0000
  C   C1049     1.0  0.56043  0.77470  0.33603  1.0000
  H   H1865     1.0  0.68600  0.78902  0.21776  1.0000
  H   H1866     1.0  0.65857  0.97158  0.23018  1.0000
  H   H1867     1.0  0.51573  0.83844  0.20881  1.0000
  C   C1050     1.0  0.57416  0.69129  0.27583  1.0000
  H   H1868     1.0  0.73613  0.71496  0.30851  1.0000
  H   H1869     1.0  0.60990  0.98436  0.25564  1.0000
  C   C1051     1.0  0.96111  0.68952  0.25657  1.0000
  H   H1870     1.0  0.58168  0.66315  0.31833  1.0000
  H   H1871     1.0  0.92246  0.95059  0.24592  1.0000
  H   H1872     1.0  0.69306  0.71668  0.26899  1.0000
  C   C1052     1.0  0.62186  0.80390  0.49723  1.0000
  C   C1053     1.0  0.93437  0.97620  0.20388  1.0000
  C   C1054     1.0  0.97579  0.78739  0.10035  1.0000
  H   H1873     1.0  0.97271  0.91973  0.15058  1.0000
  H   H1874     1.0  0.68793  0.69928  0.32788  1.0000
  H   H1875     1.0  0.97878  0.71389  0.04713  1.0000
  H   H1876     1.0  0.54364  0.94428  0.14804  1.0000
  H   H1877     1.0  0.52258  0.73378  0.30775  1.0000
  C   C1055     1.0  0.92192  0.97394  0.23874  1.0000
  C   C1056     1.0  0.49826  0.78771  0.08432  1.0000
  H   H1878     1.0  0.51153  0.93562  0.11001  1.0000
  H   H1879     1.0  0.87725  0.96981  0.22486  1.0000
  H   H1880     1.0  0.49942  0.73158  0.07795  1.0000
  H   H1881     1.0  0.71574  0.94718  0.45878  1.0000
  C   C1057     1.0  0.89010  0.98550  0.23998  1.0000
  H   H1882     1.0  0.93345  0.73279  0.06930  1.0000
  H   H1883     1.0  0.97115  0.71105  0.25170  1.0000
  H   H1884     1.0  0.96757  0.68861  0.11605  1.0000
  H   H1885     1.0  0.92653  0.66980  0.28528  1.0000
  C   C1058     1.0  0.98566  0.66881  0.26647  1.0000
  H   H1886     1.0  0.59169  0.96704  0.15420  1.0000
  H   H1887     1.0  0.94842  0.73916  0.10901  1.0000
  C   C1059     1.0  0.98575  0.80315  0.02764  1.0000
  N   N59       1.0  0.96042  0.77166  0.07263  1.0000
  H   H1888     1.0  0.49301  0.67441  0.18905  1.0000
  H   H1889     1.0  0.61427  0.67223  0.29519  1.0000
  H   H1890     1.0  0.94733  0.67984  0.07902  1.0000
  H   H1891     1.0  0.98556  0.67097  0.08211  1.0000
  C   C1060     1.0  0.57327  0.97446  0.16991  1.0000
  H   H1892     1.0  0.77969  0.98404  0.23338  1.0000
  C   C1061     1.0  0.59068  0.66686  0.29326  1.0000
  H   H1893     1.0  0.65365  0.97112  0.29075  1.0000
  C   C1062     1.0  0.54438  0.96812  0.15242  1.0000
  C   C1063     1.0  0.96871  0.68736  0.08879  1.0000
  H   H1894     1.0  0.50373  0.82629  0.11516  1.0000
  H   H1895     1.0  0.50141  0.78212  0.05794  1.0000
  C   C1064     1.0  0.57387  0.97022  0.34576  1.0000
  H   H1896     1.0  0.98530  0.97191  0.14842  1.0000
  C   C1065     1.0  0.59566  0.97275  0.31658  1.0000
  H   H1897     1.0  0.97999  0.84665  0.38343  1.0000
  H   H1898     1.0  0.83166  0.98250  0.22276  1.0000
  H   H1899     1.0  0.74657  0.97832  0.42271  1.0000
  H   H1900     1.0  0.98871  0.80946  0.37196  1.0000
  H   H1901     1.0  0.54606  0.97969  0.28025  1.0000
  H   H1902     1.0  0.49907  0.88693  0.13442  1.0000
  C   C1066     1.0  0.82496  0.98320  0.24903  1.0000
  H   H1903     1.0  0.69114  0.98602  0.24926  1.0000
  H   H1904     1.0  0.75127  0.65746  0.44034  1.0000
  H   H1905     1.0  0.49034  0.88938  0.09110  1.0000
  H   H1906     1.0  0.49014  0.92897  0.17079  1.0000
  Fe  Fe118     1.0  0.63115  0.79488  0.63111  1.0000
  S   S236      1.0  0.59556  0.82678  0.64293  1.0000
  S   S237      1.0  0.66261  0.80050  0.58738  1.0000
  Fe  Fe119     1.0  0.62228  0.76247  0.69828  1.0000
  S   S238      1.0  0.58638  0.79300  0.71421  1.0000
  S   S239      1.0  0.64159  0.72813  0.73324  1.0000
  Fe  Fe120     1.0  0.57129  0.78740  0.66165  1.0000
  S   S240      1.0  0.52415  0.78090  0.64715  1.0000
  Fe  Fe121     1.0  0.61404  0.82978  0.69434  1.0000
  S   S241      1.0  0.62840  0.87407  0.71599  1.0000
  S   S242      1.0  0.60565  0.75499  0.64663  1.0000
  S   S243      1.0  0.65114  0.79958  0.68166  1.0000
  H   H1907     1.0  0.86122  0.91473  0.98062  1.0000
  S   S244      1.0  0.86117  0.69984  0.64705  1.0000
  H   H1908     1.0  0.70038  0.70049  0.62068  1.0000
  Fe  Fe122     1.0  0.84031  0.69727  0.69744  1.0000
  S   S245      1.0  0.81839  0.73374  0.72756  1.0000
  H   H1909     1.0  0.94061  0.86554  0.98565  1.0000
  Fe  Fe123     1.0  0.87473  0.90581  0.89230  1.0000
  S   S246      1.0  0.84072  0.87641  0.86929  1.0000
  S   S247      1.0  0.90519  0.89115  0.93462  1.0000
  Fe  Fe124     1.0  0.86798  0.95191  0.83606  1.0000
  S   S248      1.0  0.83417  0.92532  0.80933  1.0000
  C   C1067     1.0  0.90105  0.89012  0.97858  1.0000
  Fe  Fe125     1.0  0.81581  0.91809  0.86009  1.0000
  S   S249      1.0  0.76695  0.91996  0.86760  1.0000
  Fe  Fe126     1.0  0.86163  0.88566  0.82029  1.0000
  S   S250      1.0  0.87600  0.85220  0.78114  1.0000
  S   S251      1.0  0.84803  0.94683  0.88666  1.0000
  S   S252      1.0  0.89720  0.91296  0.84335  1.0000
  C   C1068     1.0  0.93961  0.75758  0.76869  1.0000
  H   H1910     1.0  0.69744  0.82284  0.53380  1.0000
  C   C1069     1.0  0.87775  0.90361  0.99485  1.0000
  C   C1070     1.0  0.81809  0.65773  0.78413  1.0000
  H   H1911     1.0  0.82794  0.78293  0.61761  1.0000
  C   C1071     1.0  0.83613  0.76527  0.74393  1.0000
  C   C1072     1.0  0.86127  0.77696  0.72949  1.0000
  C   C1073     1.0  0.87309  0.80348  0.74125  1.0000
  C   C1074     1.0  0.86043  0.81840  0.76805  1.0000
  C   C1075     1.0  0.83569  0.80636  0.78300  1.0000
  C   C1076     1.0  0.82341  0.78020  0.77072  1.0000
  H   H1912     1.0  0.87125  0.76598  0.70871  1.0000
  H   H1913     1.0  0.89204  0.81264  0.72920  1.0000
  H   H1914     1.0  0.82586  0.81738  0.80378  1.0000
  H   H1915     1.0  0.80395  0.77144  0.78210  1.0000
  H   H1916     1.0  0.72433  0.83213  0.67092  1.0000
  C   C1077     1.0  0.71990  0.95651  0.86925  1.0000
  C   C1078     1.0  0.75031  0.95453  0.86621  1.0000
  H   H1917     1.0  0.49989  0.77672  0.77815  1.0000
  C   C1079     1.0  0.65890  0.67653  0.66509  1.0000
  H   H1918     1.0  0.70731  0.93700  0.87347  1.0000
  C   C1080     1.0  0.50421  0.72997  0.54805  1.0000
  C   C1081     1.0  0.95874  0.70470  0.66902  1.0000
  C   C1082     1.0  0.50738  0.70416  0.69299  1.0000
  C   C1083     1.0  0.52190  0.72897  0.68101  1.0000
  C   C1084     1.0  0.63516  0.67192  0.63916  1.0000
  C   C1085     1.0  0.95649  0.75562  0.68522  1.0000
  C   C1086     1.0  0.94242  0.72895  0.67883  1.0000
  H   H1919     1.0  0.51934  0.68831  0.70729  1.0000
  H   H1920     1.0  0.54480  0.73227  0.68639  1.0000
  H   H1921     1.0  0.94375  0.77435  0.69255  1.0000
  H   H1922     1.0  0.91901  0.72716  0.68151  1.0000
  C   C1087     1.0  0.62492  0.69529  0.74769  1.0000
  C   C1088     1.0  0.63894  0.67916  0.77256  1.0000
  C   C1089     1.0  0.76674  0.97997  0.86218  1.0000
  H   H1923     1.0  0.70664  0.70399  0.76991  1.0000
  H   H1924     1.0  0.77506  0.77851  0.63027  1.0000
  C   C1090     1.0  0.59913  0.68414  0.73405  1.0000
  H   H1925     1.0  0.65847  0.68775  0.78381  1.0000
  S   S253      1.0  0.87401  0.66772  0.71994  1.0000
  H   H1926     1.0  0.54842  0.97446  0.75169  1.0000
  H   H1927     1.0  0.58808  0.69611  0.71481  1.0000
  C   C1091     1.0  0.61334  0.90018  0.74393  1.0000
  C   C1092     1.0  0.59057  0.89345  0.76562  1.0000
  C   C1093     1.0  0.58124  0.91415  0.78925  1.0000
  C   C1094     1.0  0.59454  0.94178  0.79161  1.0000
  C   C1095     1.0  0.61703  0.94866  0.76962  1.0000
  C   C1096     1.0  0.62626  0.92803  0.74594  1.0000
  H   H1928     1.0  0.58054  0.87211  0.76462  1.0000
  H   H1929     1.0  0.56390  0.90853  0.80616  1.0000
  H   H1930     1.0  0.62745  0.96979  0.77098  1.0000
  H   H1931     1.0  0.64384  0.93357  0.72928  1.0000
  C   C1097     1.0  0.65424  0.80699  0.54491  1.0000
  C   C1098     1.0  0.62690  0.80041  0.53139  1.0000
  C   C1099     1.0  0.73131  0.67512  0.73728  1.0000
  H   H1932     1.0  0.49784  0.85173  0.64938  1.0000
  C   C1100     1.0  0.67617  0.81777  0.52378  1.0000
  H   H1933     1.0  0.60982  0.79197  0.54712  1.0000
  H   H1934     1.0  0.51917  0.73519  0.56885  1.0000
  H   H1935     1.0  0.61685  0.68718  0.64396  1.0000
  C   C1101     1.0  0.74316  0.71824  0.61426  1.0000
  H   H1936     1.0  0.70925  0.66670  0.78389  1.0000
  H   H1937     1.0  0.69027  0.68753  0.71634  1.0000
  H   H1938     1.0  0.71859  0.70905  0.67602  1.0000
  H   H1939     1.0  0.92421  0.96950  0.86927  1.0000
  H   H1940     1.0  0.97089  0.89017  0.71458  1.0000
  C   C1102     1.0  0.98067  0.84604  0.76037  1.0000
  H   H1941     1.0  0.76640  0.71260  0.61879  1.0000
  C   C1103     1.0  0.72311  0.69389  0.62635  1.0000
  H   H1942     1.0  0.68235  0.98487  0.86949  1.0000
  H   H1943     1.0  0.50534  0.69189  0.80144  1.0000
  H   H1944     1.0  0.97255  0.89128  0.77612  1.0000
  C   C1104     1.0  0.74405  0.82235  0.65916  1.0000
  H   H1945     1.0  0.81054  0.89355  0.72054  1.0000
  H   H1946     1.0  0.81645  0.74556  0.62159  1.0000
  H   H1947     1.0  0.64855  0.67358  0.68956  1.0000
  H   H1948     1.0  0.70704  0.84786  0.61341  1.0000
  H   H1949     1.0  0.95369  0.92113  0.90082  1.0000
  H   H1950     1.0  0.75067  0.68841  0.66954  1.0000
  H   H1951     1.0  0.96842  0.82509  0.86256  1.0000
  H   H1952     1.0  0.70847  0.93501  0.72656  1.0000
  C   C1105     1.0  0.97505  0.97012  0.79316  1.0000
  H   H1953     1.0  0.91850  0.75282  0.75631  1.0000
  C   C1106     1.0  0.72685  0.68880  0.66401  1.0000
  H   H1954     1.0  0.67300  0.96465  0.92807  1.0000
  H   H1955     1.0  0.77481  0.78886  0.72600  1.0000
  H   H1956     1.0  0.83645  0.76270  0.65467  1.0000
  C   C1107     1.0  0.81976  0.76633  0.63523  1.0000
  H   H1957     1.0  0.78542  0.86164  0.67863  1.0000
  H   H1958     1.0  0.81945  0.83981  0.71851  1.0000
  H   H1959     1.0  0.74015  0.72129  0.58731  1.0000
  H   H1960     1.0  0.74733  0.74441  0.74130  1.0000
  N   N60       1.0  0.98001  0.82989  0.79270  1.0000
  H   H1961     1.0  0.82251  0.66950  0.80758  1.0000
  H   H1962     1.0  0.72601  0.81844  0.59281  1.0000
  H   H1963     1.0  0.63921  0.97923  0.94370  1.0000
  N   N61       1.0  0.98242  0.95679  0.88819  1.0000
  H   H1964     1.0  0.74591  0.81394  0.73218  1.0000
  H   H1965     1.0  0.66680  0.69936  0.66347  1.0000
  H   H1966     1.0  0.49816  0.67773  0.76084  1.0000
  H   H1967     1.0  0.64386  0.67629  0.61408  1.0000
  H   H1968     1.0  0.73405  0.85568  0.58235  1.0000
  C   C1108     1.0  0.72115  0.68472  0.77153  1.0000
  H   H1969     1.0  0.70943  0.74152  0.72913  1.0000
  C   C1109     1.0  0.98692  0.75803  0.68245  1.0000
  H   H1970     1.0  0.79023  0.97869  0.85998  1.0000
  N   N62       1.0  0.76765  0.81807  0.68471  1.0000
  C   C1110     1.0  0.66285  0.97662  0.94894  1.0000
  H   H1971     1.0  0.52368  0.96064  0.80012  1.0000
  H   H1972     1.0  0.78388  0.75830  0.66734  1.0000
  H   H1973     1.0  0.73937  0.76219  0.68438  1.0000
  H   H1974     1.0  0.72075  0.77015  0.75675  1.0000
  C   C1111     1.0  0.92238  0.87592  0.99782  1.0000
  H   H1975     1.0  0.73645  0.80121  0.64892  1.0000
  C   C1112     1.0  0.51082  0.78794  0.75729  1.0000
  H   H1976     1.0  0.73776  0.73904  0.62685  1.0000
  C   C1113     1.0  0.72834  0.84085  0.60296  1.0000
  C   C1114     1.0  0.50189  0.96359  0.78842  1.0000
  H   H1977     1.0  0.94183  0.80343  0.84081  1.0000
  H   H1978     1.0  0.98499  0.69164  0.73354  1.0000
  H   H1979     1.0  0.50088  0.80809  0.71134  1.0000
  H   H1980     1.0  0.49745  0.75081  0.53648  1.0000
  H   H1981     1.0  0.50320  0.95184  0.76439  1.0000
  C   C1115     1.0  0.58789  0.65707  0.74484  1.0000
  H   H1982     1.0  0.81964  0.87814  0.75994  1.0000
  C   C1116     1.0  0.73302  0.77636  0.70524  1.0000
  C   C1117     1.0  0.75638  0.79983  0.71313  1.0000
  S   S254      1.0  0.81208  0.65931  0.68207  1.0000
  C   C1118     1.0  0.79795  0.84800  0.72699  1.0000
  H   H1983     1.0  0.72790  0.67422  0.61154  1.0000
  C   C1119     1.0  0.70583  0.98364  0.86743  1.0000
  H   H1984     1.0  0.71207  0.78703  0.69884  1.0000
  C   C1120     1.0  0.72737  0.75694  0.73503  1.0000
  H   H1985     1.0  0.81088  0.79965  0.69005  1.0000
  C   C1121     1.0  0.80278  0.87876  0.74033  1.0000
  H   H1986     1.0  0.96694  0.86984  0.91770  1.0000
  H   H1987     1.0  0.78243  0.88746  0.75130  1.0000
  C   C1122     1.0  0.95630  0.84283  0.81397  1.0000
  Fe  Fe127     1.0  0.83560  0.65938  0.63308  1.0000
  H   H1988     1.0  0.50947  0.90979  0.82027  1.0000
  C   C1123     1.0  0.92908  0.97466  0.89532  1.0000
  H   H1989     1.0  0.77275  0.83443  0.61748  1.0000
  C   C1124     1.0  0.94424  0.79053  0.77060  1.0000
  C   C1125     1.0  0.94912  0.82601  0.84612  1.0000
  C   C1126     1.0  0.92459  0.84093  0.86523  1.0000
  C   C1127     1.0  0.50680  0.74930  0.66196  1.0000
  C   C1128     1.0  0.79094  0.77602  0.65065  1.0000
  C   C1129     1.0  0.83740  0.66379  0.52996  1.0000
  H   H1990     1.0  0.79046  0.83438  0.74788  1.0000
  H   H1991     1.0  0.51631  0.71659  0.52975  1.0000
  H   H1992     1.0  0.96221  0.86540  0.82156  1.0000
  H   H1993     1.0  0.93577  0.84542  0.79964  1.0000
  H   H1994     1.0  0.80639  0.82059  0.65410  1.0000
  S   S255      1.0  0.58242  0.96672  0.82248  1.0000
  Fe  Fe128     1.0  0.89328  0.66814  0.66889  1.0000
  H   H1995     1.0  0.95882  0.84528  0.74837  1.0000
  H   H1996     1.0  0.75559  0.85938  0.70672  1.0000
  C   C1130     1.0  0.96211  0.98012  0.90087  1.0000
  S   S256      1.0  0.94205  0.67068  0.66200  1.0000
  H   H1997     1.0  0.74526  0.69260  0.72689  1.0000
  H   H1998     1.0  0.94269  0.79931  0.74522  1.0000
  H   H1999     1.0  0.92602  0.79961  0.78531  1.0000
  H   H2000     1.0  0.74131  0.91612  0.73888  1.0000
  H   H2001     1.0  0.95748  0.93910  0.84725  1.0000
  H   H2002     1.0  0.90430  0.84156  0.85024  1.0000
  H   H2003     1.0  0.91993  0.82876  0.88827  1.0000
  H   H2004     1.0  0.93097  0.86349  0.87204  1.0000
  H   H2005     1.0  0.52279  0.80733  0.76669  1.0000
  H   H2006     1.0  0.75468  0.86486  0.63701  1.0000
  C   C1131     1.0  0.70497  0.66834  0.71434  1.0000
  C   C1132     1.0  0.97794  0.97865  0.82946  1.0000
  H   H2007     1.0  0.95727  0.74710  0.75421  1.0000
  C   C1133     1.0  0.97616  0.92891  0.90649  1.0000
  H   H2008     1.0  0.66557  0.96338  0.97162  1.0000
  H   H2009     1.0  0.71712  0.66098  0.85013  1.0000
  H   H2010     1.0  0.96463  0.98288  0.92794  1.0000
  H   H2011     1.0  0.74030  0.69087  0.78682  1.0000
  N   N63       1.0  0.71219  0.66220  0.67856  1.0000
  H   H2012     1.0  0.92132  0.95626  0.91075  1.0000
  N   N64       1.0  0.68537  0.87797  0.80593  1.0000
  C   C1134     1.0  0.69492  0.89244  0.77433  1.0000
  C   C1135     1.0  0.66660  0.85185  0.79777  1.0000
  C   C1136     1.0  0.66623  0.89938  0.82430  1.0000
  C   C1137     1.0  0.71069  0.86939  0.82776  1.0000
  C   C1138     1.0  0.73966  0.86058  0.81037  1.0000
  C   C1139     1.0  0.70963  0.92278  0.77838  1.0000
  C   C1140     1.0  0.65172  0.88815  0.85642  1.0000
  C   C1141     1.0  0.68067  0.82756  0.77661  1.0000
  C   C1142     1.0  0.65850  0.80349  0.76924  1.0000
  C   C1143     1.0  0.75992  0.84414  0.83371  1.0000
  C   C1144     1.0  0.72475  0.93233  0.74663  1.0000
  C   C1145     1.0  0.63695  0.91304  0.87521  1.0000
  H   H2013     1.0  0.67588  0.89545  0.75774  1.0000
  H   H2014     1.0  0.70984  0.87835  0.75997  1.0000
  H   H2015     1.0  0.65927  0.84081  0.82068  1.0000
  H   H2016     1.0  0.64636  0.85904  0.78490  1.0000
  H   H2017     1.0  0.64842  0.90732  0.80798  1.0000
  H   H2018     1.0  0.67892  0.91901  0.83139  1.0000
  H   H2019     1.0  0.71663  0.88758  0.84473  1.0000
  H   H2020     1.0  0.70408  0.85130  0.84444  1.0000
  H   H2021     1.0  0.75142  0.88039  0.80207  1.0000
  H   H2022     1.0  0.73623  0.84662  0.78847  1.0000
  H   H2023     1.0  0.69290  0.93956  0.78416  1.0000
  H   H2024     1.0  0.72586  0.92281  0.79868  1.0000
  H   H2025     1.0  0.66805  0.87803  0.87301  1.0000
  H   H2026     1.0  0.63446  0.87192  0.85065  1.0000
  H   H2027     1.0  0.68851  0.83600  0.75260  1.0000
  H   H2028     1.0  0.69888  0.81724  0.79019  1.0000
  H   H2029     1.0  0.66867  0.78643  0.75361  1.0000
  H   H2030     1.0  0.65081  0.79309  0.79237  1.0000
  H   H2031     1.0  0.63942  0.81248  0.75582  1.0000
  H   H2032     1.0  0.78123  0.84038  0.82144  1.0000
  H   H2033     1.0  0.76392  0.85695  0.85655  1.0000
  H   H2034     1.0  0.75033  0.82272  0.84040  1.0000
  H   H2035     1.0  0.73599  0.95347  0.75082  1.0000
  C   C1146     1.0  0.75220  0.84177  0.62926  1.0000
  H   H2036     1.0  0.95460  0.95757  0.78901  1.0000
  H   H2037     1.0  0.62651  0.90447  0.89791  1.0000
  H   H2038     1.0  0.65312  0.92993  0.88243  1.0000
  H   H2039     1.0  0.61980  0.92325  0.85974  1.0000
  C   C1147     1.0  0.77562  0.84779  0.69819  1.0000
  H   H2040     1.0  0.81347  0.67408  0.76467  1.0000
  C   C1148     1.0  0.79490  0.80470  0.67023  1.0000
  H   H2041     1.0  0.85237  0.67560  0.54572  1.0000
  C   C1149     1.0  0.97811  0.95129  0.85179  1.0000
  H   H2042     1.0  0.97615  0.93276  0.93363  1.0000
  H   H2043     1.0  0.72629  0.66057  0.89334  1.0000
  C   C1150     1.0  0.97448  0.79804  0.78563  1.0000
  H   H2044     1.0  0.97764  0.78476  0.80825  1.0000
  H   H2045     1.0  0.93903  0.74801  0.79379  1.0000
  H   H2046     1.0  0.52688  0.77266  0.74621  1.0000
  C   C1151     1.0  0.98931  0.87870  0.76241  1.0000
  C   C1152     1.0  0.98906  0.70728  0.66549  1.0000
  H   H2047     1.0  0.74496  0.65556  0.74092  1.0000
  H   H2048     1.0  0.50685  0.65562  0.85017  1.0000
