data_image0
_chemical_formula_structural       S2CHNH5CH3FeHFeSHCSFeSFeH3SCFeH4C2HC6H4C3H2CH3FeC3HNC7H2CHCSH2CH11NHC4H2C2H3CHSCHSCH3CHCH3CHSH4CH2CH2SCHSCH5C3SCH4CH3CHCH2C3H3C3H2CH2FeH9CHCH3C2NH2SCH6SH3CHSH3C2H4C2H3C3HSHCFeC3SH2FeS2FeS2FeHFeHS2CHSHSCH8NHCFeH9CHCHC2H4CHC3HC6H4NC12H26CH3FeCHC2H3SCH2SC2HSCH2C2H6CH3CHSHC3H2C3HCHCH2C2H3CNC3H3CH2SC2HCH7CHC3H3CH2C2H7CH3C3H2CFeS2FeSFeSFeS3CH4CHS2CH2C2HC2HC2HC6H4C6H4CH5CSH3CHC2H6CH3FeH8CH2C2SHC3SH4CH9CH5SH6CHNH3NHNC3HC4HC2H10CH2CH8C4H2NH2CHCH4NC8H2C2H4SHCH6C2H2CH5CH6C2H3C3HFeS2HFeSHSFeS3H4CHSHC6H4C3H2CH7CHSH8CFeH2CHCNC2SH3C3H5CHFeH4CH2CH5C2H2CHCHCH7SCHCHCH6CHCHSHC2HCHCHC2HNH2CHCHCHC2SH3CHNH2CH3C2H2CH2C2HCHSH2C3H3FeSH2C2HSCH2CH2CHC2HCHC3HC2H4CHCH3SH2CHCH2CH2CH3CH2FeH9CH2CHC2H2C2HCH2N2CHC4HCHC3H3CH5CH3CH4C3H4CHCH2CHCH15NCH3C2H3CH9SFeHSH3FeS2FeS2FeSFeS3FeHSC2H3C3HCH2SH2NCH6C3HC2HSH2CHC6HC7H4CH2C3HCH2C6H9CH3CH2CFeH3CFeHC2H3CH3SCHSH3SHFeSH2CHFeH4C2HNC10FeCH16SHCH8CH2CNC4HC6NH6C2HCH2CH5NCH3C2SH2CH7FeHFeH2S2C5SCH2CSH3SHCH9CH3CH2NH11CS2CSH4C2H2CH2CHCSCS2C2HCH3CH2FeC2HCHC2FeCH5CH2CSHFeHC2H7CH2CH2CH2CH4C2HNH5C3H2CH3CHCHC2H4CHC5H2CH2CHCH2CSH2FeHCH2CHCHSCH4CH5C2H3SH2CH7CHNHC2HC2H6CH3C6H6CH6NC2HNHFeSCFeS2FeSFeHS2FeSFeS2FeSFeCS3FeS2FeS2FeSFeS3FeSHC3H3SHC3H2SCH4C4H5C3HCH3C3S2CH6C2H2CNC6H6CH2C7H3C2SNC12H17CH8C2NHC9HC2H5CH4CH2CH3NC12H22CH2SNC8HC2H17CH6C3H4FeHCHC5SC4H5CHCH3FeH3C2H4FeH3SH7SCSCHSCS2CH2SHCH3SHFeH2FeHCSH4CH3CH3C2H3C2H2CHNH4CFeH5CHCH3CFeH3SH3C2HC2H3SHNCFeHFeHFeCH4C2SH2CHC2H3C3H2FeCH3C2H4C2HCH2C2H4SHC3H2FeSFeS2FeS2FeS2FeS2FeSFeS3HCHCHC2SC2H3SH2CHCHC6H4C2H2C2HCH2CFeC6H6CH4C5H5C6H4SCSCSFeNC8HC2H8CH7SHSH5CNC9H18CHCH5SCNCH8C2H2C3NC12H29FeHC4HCHCSH5CH3SCHFe2H2CHCH7CH2CH2C2H2C5HCFeHSHCH3SHFeCHCH2FeH3C2H3C3HCH3SCH4CHCH3FeCHC2H4CH3NH3FeH3SH2FeH2NCH5CHC2HSH3CFeS2H2CH3SC2H3CH2SHCSH2CHSH3C3SH4CH2SH5CH3CH2C7H5CHC2HCNHC2H3C2HCH2CHC2HSH6C2HCHCH2CH2SH5C2H3CH5CNH2CNH2SHCS2H2SH5CH2FeCS2FeCFeSCHCSH2SFeSFeSCHS2HSFeS2FeS2FeSFeS3H2FeS2FeH2C2HC6H7SHC6H4C4H2C2HCH2SC6H4C3H3C2HC4HCH7NC7H10CH5C4HCH8CH5C3H8C2HNC8H21CH2SH3C3FeH3FeHCH2CSH3CHCNH3CHCHC3HC2H3CH4C4HSH2CH2C3H2CNC3HCFeC4H7SH10CH5FeHC2H3CHCH2CNH3C2H6CH2CH4CHCH2FeH3S2C3HC2H3C2H3C2FeCH4SCHC2HSHFeHCHNHSCH3CHCSC2HCH4CHCHFeCSHFe2SH5C3HFeCSFeCH4SH4C2H2CH6C3HCH2CHNH7CHFeH6CH4C2H2CH3FeH2CHC2H7C2H4CHCH4C5H6C2HC2HSHCH2NHC2HC2H2CH3NHCH8SCHCHCNCH2C2H2C2H3C2H3C2H3CH7CH7C2HC2FeS2HCFeSC2HS3FeSH2C2H2CH3SCH2C2HC6H4C6H9CHSH3CH3SH3CNHCH3SHCH5CHC3H3CSHCHC2NC8SC3H28C3H4SH2C2H7CHCFeHCH3CH2NCFeH2FeH3CHNSC2H3SH2C2HCH3SCH3CHCFeHFeH5C2H2C2SH2CSHCHFeS2FeS2HFeS2FeSHFeSHFeCHSC2HFeHCSHCHC3H2C2H3C6H4SH2CHCHCSHSH4NFeCH2NC9H18CFeCSHS2H3FeCH2NC2HC9H4C2H20CHNC5HC3H8CH2CH3SH6CHFeH6CH2C3HNH2C3H4CH4C3HCH2FeHC3H2CHCH6SC2H2CH2C2H2CHNCSH2CH3CH3CH2SC2HCH4CSCHC2HCHCHSC2HFeHCHC2FeSH7CH5CHCHSHCHFeS2H2CSH4CFeS2FeSFeS2C2HCH7C6H5FeH4C2H2CH3SH2C3H3CH3C2H3CHCH2CH2C2H4CH3NHCH6CHC2HC2H3C3H3CH5CHCHC2HC2HCHCH3C2H4C2H3CH2CH3CHNCH3C3H3CH2CH4C2NHFeSCH2CHSH3CS2CH3CHSHNCHSNFeSHCS2FeSFeSHCH2CFeHSHCHCS2HC4HCH2C6H4C3H2SH7NH2CHCH2CH6NCHC3HCH10CHCH4C2H2CH6C2H2CHFeCSHC2H9CH2C3H8CH2CH7CH3CH3CHC3H3CHC3SH4SNC2HCH6CH3C2HCH3
_chemical_formula_sum              "S288 C1296 H2304 N72 Fe144"
_cell_length_a       42.183
_cell_length_b       39.3033
_cell_length_c       86.0766
_cell_angle_alpha    87.742
_cell_angle_beta     84.0497
_cell_angle_gamma    113.026

_space_group_name_H-M_alt    "P 1"
_space_group_IT_number       1

loop_
  _space_group_symop_operation_xyz
  'x, y, z'

loop_
  _atom_site_type_symbol
  _atom_site_label
  _atom_site_symmetry_multiplicity
  _atom_site_fract_x
  _atom_site_fract_y
  _atom_site_fract_z
  _atom_site_occupancy
  S   S1        1.0  0.04176  0.05576  0.15536  1.0000
  S   S2        1.0  0.47627  0.11827  0.01184  1.0000
  C   C1        1.0  0.35995  0.03040  0.13012  1.0000
  H   H1        1.0  0.25712  0.11290  0.18999  1.0000
  N   N1        1.0  0.40622  0.34556  0.00926  1.0000
  H   H2        1.0  0.44690  0.27306  0.09205  1.0000
  H   H3        1.0  0.47037  0.17221  0.05542  1.0000
  H   H4        1.0  0.27013  0.05283  0.10195  1.0000
  H   H5        1.0  0.38257  0.33680  0.04180  1.0000
  H   H6        1.0  0.23154  0.99334  0.11734  1.0000
  C   C2        1.0  0.33085  0.05802  0.08296  1.0000
  H   H7        1.0  0.46845  0.37439  0.11234  1.0000
  H   H8        1.0  0.29533  0.01351  0.11838  1.0000
  H   H9        1.0  0.38726  0.12744  0.09274  1.0000
  Fe  Fe1       1.0  0.45108  0.18619  0.13427  1.0000
  H   H10       1.0  0.45147  0.08606  0.09182  1.0000
  Fe  Fe2       1.0  0.11764  0.03337  0.19267  1.0000
  S   S3        1.0  0.12636  0.07941  0.17442  1.0000
  H   H11       1.0  0.32054  0.10853  0.10157  1.0000
  C   C3        1.0  0.14273  0.07287  0.22674  1.0000
  S   S4        1.0  0.11297  0.01576  0.14886  1.0000
  Fe  Fe3       1.0  0.15788  0.05436  0.15995  1.0000
  S   S5        1.0  0.20873  0.09055  0.14535  1.0000
  Fe  Fe4       1.0  0.08081  0.03731  0.16490  1.0000
  H   H12       1.0  0.38485  0.14685  0.21695  1.0000
  H   H13       1.0  0.02077  0.09557  0.19597  1.0000
  H   H14       1.0  0.38426  0.40499  0.00903  1.0000
  S   S6        1.0  0.34529  0.08995  0.16899  1.0000
  C   C4        1.0  0.37300  0.17298  0.09735  1.0000
  Fe  Fe5       1.0  0.47276  0.15718  0.16252  1.0000
  H   H15       1.0  0.28139  0.16666  0.17166  1.0000
  H   H16       1.0  0.18075  0.02620  0.22132  1.0000
  H   H17       1.0  0.26996  0.07738  0.11903  1.0000
  H   H18       1.0  0.25845  0.19104  0.21515  1.0000
  C   C5        1.0  0.42121  0.37069  0.02185  1.0000
  C   C6        1.0  0.38698  0.03421  0.14118  1.0000
  H   H19       1.0  0.09527  0.14586  0.18175  1.0000
  C   C7        1.0  0.24664  0.09055  0.15206  1.0000
  C   C8        1.0  0.27873  0.11951  0.14670  1.0000
  C   C9        1.0  0.30928  0.11988  0.15195  1.0000
  C   C10       1.0  0.30778  0.09102  0.16240  1.0000
  C   C11       1.0  0.27578  0.06202  0.16769  1.0000
  C   C12       1.0  0.24531  0.06183  0.16254  1.0000
  H   H20       1.0  0.27987  0.14173  0.13853  1.0000
  H   H21       1.0  0.33391  0.14224  0.14777  1.0000
  H   H22       1.0  0.27459  0.03952  0.17570  1.0000
  H   H23       1.0  0.22097  0.03904  0.16638  1.0000
  C   C13       1.0  0.17232  0.13970  0.22616  1.0000
  C   C14       1.0  0.15409  0.10799  0.21869  1.0000
  C   C15       1.0  0.23461  0.02040  0.12184  1.0000
  H   H24       1.0  0.18029  0.16704  0.22018  1.0000
  H   H25       1.0  0.14768  0.11073  0.20700  1.0000
  C   C16       1.0  0.46088  0.12627  0.07229  1.0000
  H   H26       1.0  0.29789  0.04494  0.13297  1.0000
  H   H27       1.0  0.43151  0.30941  0.09413  1.0000
  H   H28       1.0  0.27215  0.21900  0.23990  1.0000
  Fe  Fe6       1.0  0.39653  0.13716  0.16060  1.0000
  C   C17       1.0  0.41509  0.38803  0.04983  1.0000
  C   C18       1.0  0.26944  0.05082  0.11482  1.0000
  C   C19       1.0  0.40166  0.30674  0.01471  1.0000
  H   H29       1.0  0.33401  0.08702  0.08020  1.0000
  N   N2        1.0  0.31155  0.18917  0.19063  1.0000
  C   C20       1.0  0.32033  0.15857  0.19763  1.0000
  C   C21       1.0  0.27725  0.17302  0.18403  1.0000
  C   C22       1.0  0.33964  0.20962  0.17719  1.0000
  C   C23       1.0  0.31095  0.21669  0.20226  1.0000
  C   C24       1.0  0.28576  0.20081  0.21763  1.0000
  C   C25       1.0  0.35485  0.17095  0.20490  1.0000
  C   C26       1.0  0.33432  0.24069  0.16745  1.0000
  H   H30       1.0  0.34110  0.02344  0.09981  1.0000
  H   H31       1.0  0.28624  0.25434  0.22383  1.0000
  C   C27       1.0  0.29091  0.23071  0.22909  1.0000
  H   H32       1.0  0.33643  0.40926  0.99616  1.0000
  C   C28       1.0  0.36161  0.25563  0.15300  1.0000
  S   S7        1.0  0.11720  0.03288  0.21864  1.0000
  H   H33       1.0  0.06003  0.05113  0.21819  1.0000
  H   H34       1.0  0.26537  0.19381  0.18348  1.0000
  C   C29       1.0  0.06071  0.11851  0.21197  1.0000
  H   H35       1.0  0.34271  0.18952  0.16900  1.0000
  H   H36       1.0  0.36528  0.22348  0.18144  1.0000
  H   H37       1.0  0.33756  0.23252  0.20527  1.0000
  H   H38       1.0  0.30330  0.23810  0.19691  1.0000
  H   H39       1.0  0.28986  0.17769  0.22360  1.0000
  H   H40       1.0  0.36520  0.01520  0.12027  1.0000
  H   H41       1.0  0.37757  0.18543  0.19589  1.0000
  H   H42       1.0  0.35528  0.18966  0.21426  1.0000
  H   H43       1.0  0.33702  0.26438  0.17457  1.0000
  H   H44       1.0  0.30844  0.23065  0.16331  1.0000
  H   H45       1.0  0.33092  0.11690  0.12072  1.0000
  N   N3        1.0  0.33667  0.06825  0.11252  1.0000
  H   H46       1.0  0.01611  0.12637  0.23577  1.0000
  C   C30       1.0  0.45854  0.13979  0.09960  1.0000
  C   C31       1.0  0.34730  0.05359  0.09777  1.0000
  C   C32       1.0  0.37184  0.38365  0.00104  1.0000
  C   C33       1.0  0.48646  0.24162  0.02243  1.0000
  H   H47       1.0  0.42641  0.30673  0.01818  1.0000
  H   H48       1.0  0.20333  0.14766  0.18999  1.0000
  C   C34       1.0  0.34809  0.04715  0.06858  1.0000
  C   C35       1.0  0.21433  0.12735  0.18630  1.0000
  H   H49       1.0  0.38825  0.26598  0.15644  1.0000
  H   H50       1.0  0.35854  0.23355  0.14490  1.0000
  H   H51       1.0  0.35834  0.27899  0.14668  1.0000
  C   C36       1.0  0.48066  0.26581  0.03284  1.0000
  H   H52       1.0  0.31974  0.37352  0.01220  1.0000
  S   S8        1.0  0.44399  0.26463  0.17823  1.0000
  C   C37       1.0  0.01000  0.09719  0.23317  1.0000
  H   H53       1.0  0.43376  0.37666  0.05347  1.0000
  S   S9        1.0  0.15290  0.01192  0.17917  1.0000
  C   C38       1.0  0.21191  0.99289  0.22278  1.0000
  H   H54       1.0  0.45945  0.32321  0.99292  1.0000
  H   H55       1.0  0.45653  0.31514  0.12170  1.0000
  H   H56       1.0  0.34552  0.01800  0.07039  1.0000
  C   C39       1.0  0.30036  0.04306  0.12001  1.0000
  H   H57       1.0  0.30293  0.03944  0.08446  1.0000
  C   C40       1.0  0.49420  0.30405  0.02856  1.0000
  H   H58       1.0  0.45551  0.13077  0.11185  1.0000
  H   H59       1.0  0.43182  0.40046  0.01732  1.0000
  H   H60       1.0  0.05898  0.14584  0.21324  1.0000
  C   C41       1.0  0.46458  0.17658  0.09501  1.0000
  H   H61       1.0  0.35194  0.33294  0.01694  1.0000
  S   S10       1.0  0.40596  0.19226  0.14832  1.0000
  H   H62       1.0  0.45560  0.01334  0.03144  1.0000
  H   H63       1.0  0.33409  0.01314  0.13668  1.0000
  H   H64       1.0  0.39666  0.27807  0.11971  1.0000
  H   H65       1.0  0.23251  0.01774  0.13484  1.0000
  C   C42       1.0  0.36156  0.06896  0.12408  1.0000
  H   H66       1.0  0.25802  0.06749  0.22451  1.0000
  H   H67       1.0  0.39283  0.14302  0.11213  1.0000
  C   C43       1.0  0.37535  0.13679  0.10288  1.0000
  H   H68       1.0  0.42922  0.41784  0.04563  1.0000
  H   H69       1.0  0.38893  0.08550  0.11886  1.0000
  S   S11       1.0  0.43809  0.12852  0.14488  1.0000
  C   C44       1.0  0.06657  0.13634  0.18280  1.0000
  H   H70       1.0  0.01045  0.01207  0.18529  1.0000
  S   S12       1.0  0.43040  0.16137  0.17910  1.0000
  C   C45       1.0  0.22993  0.06071  0.22784  1.0000
  H   H71       1.0  0.46586  0.36756  0.09228  1.0000
  H   H72       1.0  0.38508  0.25004  0.10356  1.0000
  H   H73       1.0  0.29975  0.14092  0.20702  1.0000
  H   H74       1.0  0.41363  0.04991  0.13501  1.0000
  H   H75       1.0  0.19589  0.09900  0.19105  1.0000
  C   C46       1.0  0.03537  0.05300  0.22308  1.0000
  C   C47       1.0  0.48674  0.29303  0.18098  1.0000
  C   C48       1.0  0.43868  0.28927  0.10069  1.0000
  S   S13       1.0  0.46491  0.20818  0.10890  1.0000
  C   C49       1.0  0.46906  0.18821  0.07906  1.0000
  H   H76       1.0  0.35744  0.16882  0.08740  1.0000
  H   H77       1.0  0.35706  0.08317  0.13453  1.0000
  H   H78       1.0  0.21731  0.12839  0.17333  1.0000
  H   H79       1.0  0.33844  0.12273  0.22195  1.0000
  C   C50       1.0  0.39591  0.36617  0.03700  1.0000
  H   H80       1.0  0.48449  0.46537  0.99737  1.0000
  H   H81       1.0  0.35961  0.11784  0.20325  1.0000
  H   H82       1.0  0.38263  0.04859  0.15153  1.0000
  C   C51       1.0  0.37149  0.34529  0.00638  1.0000
  H   H83       1.0  0.46609  0.25484  0.04430  1.0000
  C   C52       1.0  0.40590  0.26280  0.11100  1.0000
  H   H84       1.0  0.99835  0.13555  0.20745  1.0000
  H   H85       1.0  0.41104  0.24056  0.11723  1.0000
  C   C53       1.0  0.46836  0.30866  0.11064  1.0000
  C   C54       1.0  0.46728  0.16312  0.06771  1.0000
  C   C55       1.0  0.33907  0.10731  0.10960  1.0000
  H   H86       1.0  0.37612  0.06580  0.06612  1.0000
  H   H87       1.0  0.37608  0.06669  0.09459  1.0000
  H   H88       1.0  0.31761  0.24098  0.23242  1.0000
  C   C56       1.0  0.39328  0.24180  0.00786  1.0000
  C   C57       1.0  0.04908  0.10519  0.19595  1.0000
  C   C58       1.0  0.46145  0.47123  0.99788  1.0000
  H   H89       1.0  0.05671  0.08198  0.19289  1.0000
  H   H90       1.0  0.32137  0.13952  0.18851  1.0000
  C   C59       1.0  0.35956  0.13743  0.21222  1.0000
  H   H91       1.0  0.36086  0.18326  0.10712  1.0000
  H   H92       1.0  0.39948  0.19422  0.09327  1.0000
  Fe  Fe7       1.0  0.44346  0.21589  0.16553  1.0000
  H   H93       1.0  0.33549  0.04976  0.05814  1.0000
  H   H94       1.0  0.47629  0.21217  0.02588  1.0000
  H   H95       1.0  0.47823  0.28768  0.11454  1.0000
  H   H96       1.0  0.39622  0.38579  0.06022  1.0000
  H   H97       1.0  0.21648  0.03923  0.20592  1.0000
  H   H98       1.0  0.44404  0.36640  0.02549  1.0000
  H   H99       1.0  0.21307  0.02768  0.11858  1.0000
  H   H100      1.0  0.01847  0.04403  0.21374  1.0000
  H   H101      1.0  0.08897  0.12417  0.21054  1.0000
  C   C60       1.0  0.45625  0.11452  0.08826  1.0000
  H   H102      1.0  0.37982  0.23035  0.01987  1.0000
  C   C61       1.0  0.24917  0.13624  0.19236  1.0000
  H   H103      1.0  0.05806  0.12600  0.17148  1.0000
  H   H104      1.0  0.37585  0.37668  0.03460  1.0000
  H   H105      1.0  0.48343  0.99657  0.01977  1.0000
  C   C62       1.0  0.33509  0.38157  0.00038  1.0000
  C   C63       1.0  0.00213  0.04584  0.16716  1.0000
  N   N4        1.0  0.04252  0.09251  0.22654  1.0000
  H   H106      1.0  0.38290  0.29627  0.02558  1.0000
  H   H107      1.0  0.22487  0.08593  0.22535  1.0000
  S   S14       1.0  0.45846  0.09455  0.05825  1.0000
  C   C64       1.0  0.20802  0.02967  0.21852  1.0000
  H   H108      1.0  0.05923  0.16012  0.18500  1.0000
  H   H109      1.0  0.24501  0.13722  0.20520  1.0000
  H   H110      1.0  0.46370  0.02747  0.07393  1.0000
  H   H111      1.0  0.47353  0.21656  0.07545  1.0000
  H   H112      1.0  0.47202  0.30067  0.20486  1.0000
  H   H113      1.0  0.47587  0.43381  0.08681  1.0000
  S   S15       1.0  0.48708  0.33374  0.04194  1.0000
  H   H114      1.0  0.10822  0.15735  0.23158  1.0000
  H   H115      1.0  0.24013  0.99911  0.22056  1.0000
  H   H116      1.0  0.38489  0.00628  0.14542  1.0000
  C   C65       1.0  0.01854  0.02316  0.23712  1.0000
  H   H117      1.0  0.08747  0.09147  0.23651  1.0000
  S   S16       1.0  0.06948  0.99318  0.18453  1.0000
  H   H118      1.0  0.42141  0.24788  0.00760  1.0000
  H   H119      1.0  0.35992  0.26921  0.00267  1.0000
  H   H120      1.0  0.47679  0.36132  0.00454  1.0000
  C   C66       1.0  0.38814  0.27693  0.00297  1.0000
  C   C67       1.0  0.48409  0.37354  0.10123  1.0000
  H   H121      1.0  0.40153  0.28672  0.99088  1.0000
  H   H122      1.0  0.47258  0.01598  0.09314  1.0000
  H   H123      1.0  0.36102  0.32697  0.99699  1.0000
  H   H124      1.0  0.43863  0.39018  0.99188  1.0000
  C   C68       1.0  0.47822  0.01446  0.08035  1.0000
  C   C69       1.0  0.06689  0.10232  0.23895  1.0000
  H   H125      1.0  0.38247  0.22043  0.99960  1.0000
  H   H126      1.0  0.48976  0.33048  0.07877  1.0000
  H   H127      1.0  0.48145  0.44234  0.10710  1.0000
  C   C70       1.0  0.44997  0.48364  0.01150  1.0000
  C   C71       1.0  0.46479  0.35301  0.99377  1.0000
  C   C72       1.0  0.43093  0.35974  0.99423  1.0000
  H   H128      1.0  0.32177  0.36129  0.99211  1.0000
  S   S17       1.0  0.48942  0.21434  0.15063  1.0000
  H   H129      1.0  0.20303  0.99231  0.19201  1.0000
  C   C73       1.0  0.49326  0.30692  0.19554  1.0000
  Fe  Fe8       1.0  0.49361  0.12174  0.03577  1.0000
  C   C74       1.0  0.49483  0.44127  0.09543  1.0000
  C   C75       1.0  0.42047  0.49189  0.01191  1.0000
  C   C76       1.0  0.40252  0.48790  0.99880  1.0000
  S   S18       1.0  0.47295  0.49160  0.02786  1.0000
  H   H130      1.0  0.06872  0.15952  0.24038  1.0000
  H   H131      1.0  0.45174  0.05518  0.99206  1.0000
  Fe  Fe9       1.0  0.17855  0.11179  0.30607  1.0000
  S   S19       1.0  0.14058  0.10759  0.28916  1.0000
  S   S20       1.0  0.18458  0.06093  0.31585  1.0000
  Fe  Fe10      1.0  0.19770  0.19470  0.30856  1.0000
  S   S21       1.0  0.16055  0.19712  0.29208  1.0000
  S   S22       1.0  0.23020  0.24065  0.32233  1.0000
  Fe  Fe11      1.0  0.12316  0.14273  0.30478  1.0000
  H   H132      1.0  0.14134  0.04205  0.24818  1.0000
  Fe  Fe12      1.0  0.18147  0.16177  0.27788  1.0000
  H   H133      1.0  0.45574  0.40895  0.46403  1.0000
  S   S23       1.0  0.15856  0.14346  0.32254  1.0000
  S   S24       1.0  0.22120  0.16286  0.29353  1.0000
  C   C77       1.0  0.09922  0.06813  0.34769  1.0000
  H   H134      1.0  0.04973  0.03077  0.33111  1.0000
  S   S25       1.0  0.28488  0.41000  0.29686  1.0000
  H   H135      1.0  0.17380  0.09782  0.26117  1.0000
  S   S26       1.0  0.06675  0.12686  0.31419  1.0000
  C   C78       1.0  0.26721  0.13169  0.25547  1.0000
  H   H136      1.0  0.25213  0.09856  0.32839  1.0000
  H   H137      1.0  0.37879  0.47644  0.44522  1.0000
  H   H138      1.0  0.26736  0.07173  0.34075  1.0000
  H   H139      1.0  0.38795  0.39640  0.34068  1.0000
  H   H140      1.0  0.40876  0.48039  0.41821  1.0000
  H   H141      1.0  0.43304  0.39857  0.30565  1.0000
  H   H142      1.0  0.99995  0.08161  0.24496  1.0000
  H   H143      1.0  0.27955  0.13621  0.27893  1.0000
  N   N5        1.0  0.41960  0.46269  0.29797  1.0000
  H   H144      1.0  0.33873  0.04132  0.29532  1.0000
  C   C79       1.0  0.31881  0.45657  0.38219  1.0000
  Fe  Fe13      1.0  0.25903  0.46336  0.34680  1.0000
  H   H145      1.0  0.36696  0.45518  0.29452  1.0000
  H   H146      1.0  0.33746  0.45815  0.42655  1.0000
  H   H147      1.0  0.10514  0.01766  0.30340  1.0000
  H   H148      1.0  0.02471  0.04550  0.27237  1.0000
  H   H149      1.0  0.39951  0.11593  0.28442  1.0000
  H   H150      1.0  0.03526  0.02860  0.24663  1.0000
  H   H151      1.0  0.12590  0.08619  0.34983  1.0000
  H   H152      1.0  0.34211  0.38487  0.34123  1.0000
  H   H153      1.0  0.07015  0.09298  0.28506  1.0000
  C   C80       1.0  0.33070  0.47338  0.45733  1.0000
  H   H154      1.0  0.10983  0.01160  0.27480  1.0000
  C   C81       1.0  0.16810  0.10079  0.24943  1.0000
  H   H155      1.0  0.08673  0.08599  0.34311  1.0000
  C   C82       1.0  0.17857  0.13602  0.24169  1.0000
  C   C83       1.0  0.01791  0.05445  0.28343  1.0000
  H   H156      1.0  0.07879  0.14415  0.26642  1.0000
  H   H157      1.0  0.05281  0.08851  0.25061  1.0000
  H   H158      1.0  0.21720  0.39671  0.41935  1.0000
  H   H159      1.0  0.28408  0.07165  0.26059  1.0000
  C   C84       1.0  0.27582  0.08129  0.27168  1.0000
  H   H160      1.0  0.19159  0.43663  0.49051  1.0000
  C   C85       1.0  0.27315  0.08850  0.32934  1.0000
  C   C86       1.0  0.18043  0.03798  0.28634  1.0000
  C   C87       1.0  0.00043  0.07707  0.31223  1.0000
  H   H161      1.0  0.18329  0.06566  0.28261  1.0000
  C   C88       1.0  0.24696  0.28720  0.31437  1.0000
  C   C89       1.0  0.23909  0.29733  0.29996  1.0000
  C   C90       1.0  0.25165  0.33506  0.29443  1.0000
  C   C91       1.0  0.27119  0.36278  0.30349  1.0000
  C   C92       1.0  0.27951  0.35248  0.31773  1.0000
  C   C93       1.0  0.26794  0.31484  0.32301  1.0000
  H   H162      1.0  0.22317  0.27618  0.29314  1.0000
  H   H163      1.0  0.24535  0.34282  0.28332  1.0000
  H   H164      1.0  0.29487  0.37347  0.32469  1.0000
  H   H165      1.0  0.27480  0.30708  0.33397  1.0000
  N   N6        1.0  0.16129  0.31198  0.35490  1.0000
  C   C94       1.0  0.16099  0.27557  0.34976  1.0000
  C   C95       1.0  0.19095  0.32876  0.36441  1.0000
  C   C96       1.0  0.12806  0.30376  0.36572  1.0000
  C   C97       1.0  0.16353  0.33898  0.34135  1.0000
  C   C98       1.0  0.18227  0.33599  0.32526  1.0000
  C   C99       1.0  0.12800  0.25093  0.34269  1.0000
  C   C100      1.0  0.12532  0.33730  0.37388  1.0000
  C   C101      1.0  0.22787  0.33810  0.35601  1.0000
  C   C102      1.0  0.25512  0.35368  0.36714  1.0000
  C   C103      1.0  0.18693  0.36816  0.31346  1.0000
  C   C104      1.0  0.13448  0.22178  0.33315  1.0000
  C   C105      1.0  0.08823  0.32836  0.38144  1.0000
  H   H166      1.0  0.16346  0.25852  0.35986  1.0000
  H   H167      1.0  0.18407  0.27992  0.34117  1.0000
  H   H168      1.0  0.19159  0.35533  0.36851  1.0000
  H   H169      1.0  0.18707  0.31014  0.37518  1.0000
  H   H170      1.0  0.12424  0.28165  0.37512  1.0000
  H   H171      1.0  0.10524  0.29258  0.35917  1.0000
  H   H172      1.0  0.13713  0.33607  0.33904  1.0000
  H   H173      1.0  0.17634  0.36812  0.34445  1.0000
  H   H174      1.0  0.16705  0.30998  0.32018  1.0000
  H   H175      1.0  0.20813  0.33608  0.32629  1.0000
  H   H176      1.0  0.10657  0.23605  0.35229  1.0000
  H   H177      1.0  0.11897  0.26770  0.33501  1.0000
  H   H178      1.0  0.13339  0.36220  0.36546  1.0000
  H   H179      1.0  0.14215  0.34442  0.38339  1.0000
  H   H180      1.0  0.23030  0.31299  0.35169  1.0000
  H   H181      1.0  0.23422  0.35974  0.34619  1.0000
  H   H182      1.0  0.28137  0.36013  0.36080  1.0000
  H   H183      1.0  0.25454  0.37971  0.37151  1.0000
  H   H184      1.0  0.25045  0.33317  0.37727  1.0000
  H   H185      1.0  0.19885  0.36448  0.30187  1.0000
  H   H186      1.0  0.16153  0.36939  0.31203  1.0000
  H   H187      1.0  0.20447  0.39476  0.31738  1.0000
  H   H188      1.0  0.15447  0.23540  0.32288  1.0000
  H   H189      1.0  0.14344  0.20429  0.34050  1.0000
  H   H190      1.0  0.07028  0.32274  0.37239  1.0000
  H   H191      1.0  0.07927  0.30388  0.39019  1.0000
  C   C106      1.0  0.22290  0.41957  0.41061  1.0000
  H   H192      1.0  0.31301  0.48817  0.45756  1.0000
  H   H193      1.0  0.37054  0.43097  0.34489  1.0000
  H   H194      1.0  0.18082  0.02072  0.26292  1.0000
  Fe  Fe14      1.0  0.28921  0.44973  0.31560  1.0000
  C   C107      1.0  0.34891  0.48853  0.42791  1.0000
  H   H195      1.0  0.42876  0.44157  0.32007  1.0000
  C   C108      1.0  0.32691  0.47951  0.39631  1.0000
  C   C109      1.0  0.37342  0.41918  0.32033  1.0000
  H   H196      1.0  0.36998  0.39431  0.31392  1.0000
  H   H197      1.0  0.32086  0.42956  0.38450  1.0000
  H   H198      1.0  0.11823  0.18021  0.25681  1.0000
  S   S27       1.0  0.25007  0.46362  0.43343  1.0000
  C   C110      1.0  0.06406  0.01309  0.33362  1.0000
  H   H199      1.0  0.20221  0.38416  0.39258  1.0000
  H   H200      1.0  0.05161  0.99719  0.34519  1.0000
  S   S28       1.0  0.21356  0.43195  0.36490  1.0000
  C   C111      1.0  0.03502  0.09272  0.30505  1.0000
  C   C112      1.0  0.41778  0.43075  0.28845  1.0000
  H   H201      1.0  0.34036  0.47470  0.46891  1.0000
  S   S29       1.0  0.24797  0.47120  0.32230  1.0000
  C   C113      1.0  0.40973  0.45079  0.31531  1.0000
  H   H202      1.0  0.44999  0.45229  0.46273  1.0000
  H   H203      1.0  0.28249  0.01698  0.29777  1.0000
  C   C114      1.0  0.04368  0.08112  0.29067  1.0000
  C   C115      1.0  0.17978  0.02814  0.30215  1.0000
  H   H204      1.0  0.07136  0.99820  0.26518  1.0000
  H   H205      1.0  0.08745  0.35246  0.38755  1.0000
  H   H206      1.0  0.11495  0.05689  0.32457  1.0000
  H   H207      1.0  0.40128  0.07683  0.29539  1.0000
  H   H208      1.0  0.24700  0.06781  0.27348  1.0000
  H   H209      1.0  0.25535  0.08908  0.29903  1.0000
  C   C116      1.0  0.09498  0.46714  0.47850  1.0000
  H   H210      1.0  0.31447  0.13824  0.26452  1.0000
  H   H211      1.0  0.39028  0.41086  0.28863  1.0000
  H   H212      1.0  0.27491  0.12241  0.24422  1.0000
  C   C117      1.0  0.23834  0.45608  0.41456  1.0000
  H   H213      1.0  0.11492  0.13313  0.25873  1.0000
  S   S30       1.0  0.29770  0.43859  0.34021  1.0000
  H   H214      1.0  0.11011  0.20357  0.32880  1.0000
  C   C118      1.0  0.06653  0.47346  0.48558  1.0000
  C   C119      1.0  0.27339  0.02764  0.28778  1.0000
  C   C120      1.0  0.43936  0.40884  0.29307  1.0000
  H   H215      1.0  0.08435  0.05315  0.35904  1.0000
  H   H216      1.0  0.39638  0.47110  0.26754  1.0000
  C   C121      1.0  0.32906  0.08390  0.28129  1.0000
  C   C122      1.0  0.23852  0.47855  0.38784  1.0000
  C   C123      1.0  0.10100  0.04075  0.33583  1.0000
  H   H217      1.0  0.36790  0.46158  0.40060  1.0000
  C   C124      1.0  0.36833  0.40722  0.33786  1.0000
  H   H218      1.0  0.42700  0.44077  0.27587  1.0000
  C   C125      1.0  0.22262  0.44188  0.38400  1.0000
  H   H219      1.0  0.40452  0.35560  0.28617  1.0000
  H   H220      1.0  0.22298  0.05250  0.24063  1.0000
  C   C126      1.0  0.36135  0.49136  0.44438  1.0000
  C   C127      1.0  0.28051  0.08628  0.29972  1.0000
  H   H221      1.0  0.34062  0.11477  0.28029  1.0000
  H   H222      1.0  0.08555  0.04067  0.27470  1.0000
  H   H223      1.0  0.39075  0.07254  0.27561  1.0000
  C   C128      1.0  0.34896  0.07190  0.29301  1.0000
  N   N7        1.0  0.29014  0.06950  0.28535  1.0000
  C   C129      1.0  0.27518  0.06467  0.31596  1.0000
  C   C130      1.0  0.08342  0.01158  0.27543  1.0000
  C   C131      1.0  0.39371  0.47729  0.29291  1.0000
  H   H224      1.0  0.31576  0.44382  0.45551  1.0000
  H   H225      1.0  0.33600  0.07631  0.26948  1.0000
  H   H226      1.0  0.07275  0.03554  0.30510  1.0000
  C   C132      1.0  0.27803  0.00626  0.27354  1.0000
  H   H227      1.0  0.29996  0.11511  0.30018  1.0000
  H   H228      1.0  0.14532  0.49107  0.46452  1.0000
  S   S31       1.0  0.19731  0.17529  0.25178  1.0000
  C   C133      1.0  0.43229  0.37500  0.28367  1.0000
  C   C134      1.0  0.08594  0.14441  0.24100  1.0000
  H   H229      1.0  0.23863  0.11751  0.25870  1.0000
  C   C135      1.0  0.46905  0.43957  0.46393  1.0000
  H   H230      1.0  0.34751  0.08467  0.30418  1.0000
  H   H231      1.0  0.29822  0.11274  0.32914  1.0000
  H   H232      1.0  0.41075  0.47504  0.32182  1.0000
  H   H233      1.0  0.35253  0.42855  0.31819  1.0000
  H   H234      1.0  0.34751  0.49043  0.27528  1.0000
  H   H235      1.0  0.25031  0.03971  0.31728  1.0000
  H   H236      1.0  0.29622  0.05523  0.31750  1.0000
  C   C136      1.0  0.38745  0.08520  0.28666  1.0000
  H   H237      1.0  0.48946  0.44999  0.45360  1.0000
  C   C137      1.0  0.21443  0.41248  0.39545  1.0000
  C   C138      1.0  0.10031  0.15069  0.25670  1.0000
  C   C139      1.0  0.28618  0.12372  0.26841  1.0000
  H   H238      1.0  0.01176  0.00854  0.31402  1.0000
  H   H239      1.0  0.43888  0.38360  0.27089  1.0000
  H   H240      1.0  0.46747  0.42659  0.29043  1.0000
  C   C140      1.0  0.48582  0.45008  0.47889  1.0000
  H   H241      1.0  0.44847  0.36004  0.28699  1.0000
  H   H242      1.0  0.09492  0.43962  0.47967  1.0000
  C   C141      1.0  0.24589  0.48568  0.40323  1.0000
  C   C142      1.0  0.17937  0.01266  0.27521  1.0000
  H   H243      1.0  0.27385  0.16198  0.25384  1.0000
  H   H244      1.0  0.15832  0.44032  0.47970  1.0000
  H   H245      1.0  0.30763  0.46319  0.40639  1.0000
  H   H246      1.0  0.24497  0.01854  0.29120  1.0000
  H   H247      1.0  0.30556  0.01649  0.26827  1.0000
  H   H248      1.0  0.29199  0.45093  0.37979  1.0000
  H   H249      1.0  0.33683  0.47188  0.37158  1.0000
  C   C143      1.0  0.15000  0.06929  0.24202  1.0000
  H   H250      1.0  0.48457  0.46799  0.30750  1.0000
  H   H251      1.0  0.11634  0.02622  0.34048  1.0000
  H   H252      1.0  0.26216  0.00915  0.26444  1.0000
  C   C144      1.0  0.07641  0.00895  0.30528  1.0000
  C   C145      1.0  0.36472  0.48843  0.39967  1.0000
  C   C146      1.0  0.17685  0.99245  0.30693  1.0000
  H   H253      1.0  0.09146  0.07906  0.67970  1.0000
  H   H254      1.0  0.42565  0.33953  0.71688  1.0000
  C   C147      1.0  0.16949  0.48876  0.50361  1.0000
  Fe  Fe15      1.0  0.26675  0.11363  0.67040  1.0000
  S   S32       1.0  0.26320  0.13237  0.69449  1.0000
  S   S33       1.0  0.31642  0.13303  0.65342  1.0000
  Fe  Fe16      1.0  0.18907  0.06538  0.67385  1.0000
  S   S34       1.0  0.17910  0.08062  0.69819  1.0000
  Fe  Fe17      1.0  0.21498  0.13833  0.68880  1.0000
  S   S35       1.0  0.20791  0.18988  0.69538  1.0000
  Fe  Fe18      1.0  0.22803  0.07329  0.70178  1.0000
  S   S36       1.0  0.23338  0.04998  0.72507  1.0000
  S   S37       1.0  0.22105  0.12431  0.66405  1.0000
  S   S38       1.0  0.23534  0.05310  0.67815  1.0000
  C   C148      1.0  0.27497  0.16228  0.73348  1.0000
  H   H255      1.0  0.21032  0.15456  0.72777  1.0000
  H   H256      1.0  0.43587  0.17824  0.61997  1.0000
  H   H257      1.0  0.05794  0.30490  0.68449  1.0000
  H   H258      1.0  0.45119  0.22799  0.68955  1.0000
  C   C149      1.0  0.38597  0.42742  0.53693  1.0000
  H   H259      1.0  0.32202  0.06169  0.68201  1.0000
  S   S39       1.0  0.14492  0.03300  0.66063  1.0000
  S   S40       1.0  0.44151  0.27947  0.66603  1.0000
  C   C150      1.0  0.14033  0.24502  0.72150  1.0000
  H   H260      1.0  0.01812  0.15021  0.73351  1.0000
  H   H261      1.0  0.49074  0.16156  0.63584  1.0000
  C   C151      1.0  0.48518  0.38586  0.50861  1.0000
  C   C152      1.0  0.46832  0.37312  0.68290  1.0000
  H   H262      1.0  0.22953  0.23227  0.64354  1.0000
  C   C153      1.0  0.09778  0.26832  0.73414  1.0000
  C   C154      1.0  0.16267  0.49020  0.53211  1.0000
  H   H263      1.0  0.29971  0.17692  0.73832  1.0000
  C   C155      1.0  0.12246  0.30894  0.73561  1.0000
  C   C156      1.0  0.16733  0.49110  0.56132  1.0000
  H   H264      1.0  0.19168  0.23863  0.63852  1.0000
  C   C157      1.0  0.17755  0.19908  0.68543  1.0000
  C   C158      1.0  0.18674  0.23438  0.67791  1.0000
  C   C159      1.0  0.16261  0.24256  0.67018  1.0000
  C   C160      1.0  0.12875  0.21596  0.67048  1.0000
  C   C161      1.0  0.11904  0.18110  0.67859  1.0000
  C   C162      1.0  0.14386  0.17220  0.68555  1.0000
  H   H265      1.0  0.21277  0.25525  0.67781  1.0000
  H   H266      1.0  0.17016  0.26964  0.66402  1.0000
  H   H267      1.0  0.09276  0.16073  0.67904  1.0000
  H   H268      1.0  0.13706  0.14467  0.69101  1.0000
  C   C163      1.0  0.34987  0.17570  0.65620  1.0000
  C   C164      1.0  0.34737  0.19468  0.66935  1.0000
  C   C165      1.0  0.37533  0.22714  0.67193  1.0000
  C   C166      1.0  0.40620  0.24058  0.66152  1.0000
  C   C167      1.0  0.40850  0.22234  0.64808  1.0000
  C   C168      1.0  0.38016  0.19017  0.64537  1.0000
  H   H269      1.0  0.32403  0.18434  0.67760  1.0000
  H   H270      1.0  0.37324  0.24142  0.68224  1.0000
  H   H271      1.0  0.43200  0.23297  0.63983  1.0000
  H   H272      1.0  0.38176  0.17614  0.63495  1.0000
  C   C169      1.0  0.20632  0.27234  0.71922  1.0000
  H   H273      1.0  0.34861  0.03838  0.67422  1.0000
  H   H274      1.0  0.04928  0.04904  0.67533  1.0000
  H   H275      1.0  0.45726  0.31147  0.70276  1.0000
  H   H276      1.0  0.11512  0.25635  0.69496  1.0000
  H   H277      1.0  0.18399  0.48008  0.53040  1.0000
  C   C170      1.0  0.48453  0.33002  0.69842  1.0000
  S   S41       1.0  0.01339  0.14014  0.65634  1.0000
  H   H278      1.0  0.49010  0.31969  0.68700  1.0000
  H   H279      1.0  0.46689  0.17285  0.69231  1.0000
  H   H280      1.0  0.27300  0.13398  0.73108  1.0000
  C   C171      1.0  0.34835  0.06130  0.68131  1.0000
  H   H281      1.0  0.21951  0.22835  0.62364  1.0000
  C   C172      1.0  0.15015  0.44577  0.50478  1.0000
  C   C173      1.0  0.44824  0.35684  0.72251  1.0000
  H   H282      1.0  0.21472  0.09256  0.62642  1.0000
  H   H283      1.0  0.14943  0.39886  0.49208  1.0000
  H   H284      1.0  0.13053  0.29884  0.70352  1.0000
  H   H285      1.0  0.47806  0.13004  0.67925  1.0000
  H   H286      1.0  0.45085  0.42820  0.53367  1.0000
  H   H287      1.0  0.41697  0.38449  0.66783  1.0000
  C   C174      1.0  0.07581  0.27741  0.70182  1.0000
  H   H288      1.0  0.14733  0.30976  0.73909  1.0000
  H   H289      1.0  0.46519  0.07462  0.66456  1.0000
  H   H290      1.0  0.20433  0.16677  0.63760  1.0000
  Fe  Fe19      1.0  0.04291  0.19215  0.66727  1.0000
  H   H291      1.0  0.05979  0.09779  0.67545  1.0000
  H   H292      1.0  0.05391  0.25083  0.70062  1.0000
  H   H293      1.0  0.10449  0.47429  0.51764  1.0000
  H   H294      1.0  0.00053  0.03617  0.72021  1.0000
  H   H295      1.0  0.44098  0.40793  0.49325  1.0000
  H   H296      1.0  0.09816  0.11948  0.71277  1.0000
  H   H297      1.0  0.03579  0.09027  0.61761  1.0000
  H   H298      1.0  0.06175  0.07838  0.64846  1.0000
  C   C175      1.0  0.16329  0.42955  0.49091  1.0000
  H   H299      1.0  0.40587  0.19741  0.69442  1.0000
  H   H300      1.0  0.48112  0.19263  0.61268  1.0000
  C   C176      1.0  0.43553  0.37699  0.73493  1.0000
  C   C177      1.0  0.05185  0.11960  0.61315  1.0000
  S   S42       1.0  0.09968  0.22685  0.66021  1.0000
  H   H301      1.0  0.48123  0.10267  0.64619  1.0000
  C   C178      1.0  0.19542  0.01125  0.73184  1.0000
  C   C179      1.0  0.41435  0.44575  0.52308  1.0000
  C   C180      1.0  0.47586  0.13366  0.66659  1.0000
  S   S43       1.0  0.02084  0.16938  0.69209  1.0000
  H   H302      1.0  0.10279  0.32971  0.68725  1.0000
  H   H303      1.0  0.09030  0.08571  0.62352  1.0000
  H   H304      1.0  0.08273  0.19887  0.70950  1.0000
  H   H305      1.0  0.04755  0.13507  0.72189  1.0000
  C   C181      1.0  0.10889  0.27108  0.70486  1.0000
  H   H306      1.0  0.10419  0.14132  0.65318  1.0000
  H   H307      1.0  0.42031  0.32253  0.68972  1.0000
  H   H308      1.0  0.17673  0.27777  0.70116  1.0000
  H   H309      1.0  0.47261  0.40250  0.68003  1.0000
  H   H310      1.0  0.10470  0.07831  0.71832  1.0000
  H   H311      1.0  0.41763  0.36533  0.69535  1.0000
  H   H312      1.0  0.17783  0.17674  0.65295  1.0000
  H   H313      1.0  0.37204  0.39733  0.53569  1.0000
  H   H314      1.0  0.17962  0.99990  0.70891  1.0000
  C   C182      1.0  0.48351  0.10214  0.65890  1.0000
  H   H315      1.0  0.15414  0.43261  0.51562  1.0000
  H   H316      1.0  0.16093  0.10072  0.60662  1.0000
  H   H317      1.0  0.13849  0.46505  0.53599  1.0000
  H   H318      1.0  0.14827  0.08471  0.73884  1.0000
  H   H319      1.0  0.15995  0.13108  0.71740  1.0000
  S   S44       1.0  0.03319  0.43730  0.49777  1.0000
  H   H320      1.0  0.09017  0.28876  0.67648  1.0000
  H   H321      1.0  0.20722  0.27569  0.73192  1.0000
  H   H322      1.0  0.46246  0.36896  0.51726  1.0000
  H   H323      1.0  0.21421  0.08889  0.60562  1.0000
  H   H324      1.0  0.06760  0.29144  0.71140  1.0000
  H   H325      1.0  0.09185  0.05829  0.65256  1.0000
  C   C183      1.0  0.17463  0.27725  0.71414  1.0000
  H   H326      1.0  0.18016  0.05483  0.61927  1.0000
  N   N8        1.0  0.48881  0.36990  0.69588  1.0000
  H   H327      1.0  0.05839  0.00981  0.70957  1.0000
  H   H328      1.0  0.20873  0.11172  0.73560  1.0000
  H   H329      1.0  0.16845  0.10534  0.64195  1.0000
  N   N9        1.0  0.10681  0.24999  0.72027  1.0000
  H   H330      1.0  0.19513  0.13790  0.61405  1.0000
  N   N10       1.0  0.44118  0.13470  0.66452  1.0000
  C   C184      1.0  0.43677  0.13744  0.64739  1.0000
  C   C185      1.0  0.41260  0.09943  0.67237  1.0000
  C   C186      1.0  0.43923  0.16837  0.67169  1.0000
  H   H331      1.0  0.08358  0.09842  0.73243  1.0000
  C   C187      1.0  0.19763  0.08472  0.61701  1.0000
  C   C188      1.0  0.46733  0.16797  0.63667  1.0000
  C   C189      1.0  0.44059  0.16906  0.68963  1.0000
  C   C190      1.0  0.37526  0.09859  0.67369  1.0000
  H   H332      1.0  0.06248  0.12077  0.60069  1.0000
  C   C191      1.0  0.45797  0.43776  0.49357  1.0000
  C   C192      1.0  0.45862  0.17068  0.62000  1.0000
  H   H333      1.0  0.36687  0.44051  0.53730  1.0000
  H   H334      1.0  0.41316  0.14270  0.64606  1.0000
  H   H335      1.0  0.43190  0.11052  0.64230  1.0000
  H   H336      1.0  0.41194  0.07532  0.66584  1.0000
  H   H337      1.0  0.41786  0.09305  0.68431  1.0000
  H   H338      1.0  0.41536  0.17188  0.66914  1.0000
  H   H339      1.0  0.99997  0.06479  0.65899  1.0000
  H   H340      1.0  0.20560  0.24454  0.71680  1.0000
  H   H341      1.0  0.42459  0.39532  0.72942  1.0000
  H   H342      1.0  0.45299  0.14392  0.61472  1.0000
  C   C193      1.0  0.43287  0.20122  0.69588  1.0000
  H   H343      1.0  0.47391  0.19561  0.64115  1.0000
  H   H344      1.0  0.43564  0.20230  0.70856  1.0000
  C   C194      1.0  0.44142  0.42789  0.52204  1.0000
  H   H345      1.0  0.42134  0.14322  0.69623  1.0000
  H   H346      1.0  0.37273  0.12032  0.68095  1.0000
  H   H347      1.0  0.36820  0.10288  0.66193  1.0000
  H   H348      1.0  0.40143  0.44237  0.51232  1.0000
  H   H349      1.0  0.13334  0.12240  0.65893  1.0000
  H   H350      1.0  0.03481  0.13522  0.61382  1.0000
  H   H351      1.0  0.11960  0.12237  0.61010  1.0000
  H   H352      1.0  0.38282  0.33957  0.67405  1.0000
  C   C195      1.0  0.07299  0.18371  0.73454  1.0000
  C   C196      1.0  0.42832  0.35238  0.68612  1.0000
  C   C197      1.0  0.03325  0.99657  0.70491  1.0000
  C   C198      1.0  0.10441  0.10463  0.72242  1.0000
  H   H353      1.0  0.14030  0.22034  0.71548  1.0000
  H   H354      1.0  0.10567  0.02318  0.73334  1.0000
  N   N11       1.0  0.47158  0.44483  0.50918  1.0000
  H   H355      1.0  0.13456  0.07249  0.63339  1.0000
  H   H356      1.0  0.42674  0.39804  0.52054  1.0000
  C   C199      1.0  0.07823  0.21188  0.72034  1.0000
  H   H357      1.0  0.05285  0.21389  0.72010  1.0000
  C   C200      1.0  0.08225  0.30173  0.68657  1.0000
  H   H358      1.0  0.09567  0.16642  0.61865  1.0000
  H   H359      1.0  0.07102  0.26708  0.73433  1.0000
  H   H360      1.0  0.12185  0.43733  0.50466  1.0000
  H   H361      1.0  0.06912  0.13585  0.63520  1.0000
  N   N12       1.0  0.13204  0.12636  0.63389  1.0000
  C   C201      1.0  0.15531  0.16703  0.63072  1.0000
  C   C202      1.0  0.10604  0.11621  0.62230  1.0000
  C   C203      1.0  0.11427  0.11967  0.65053  1.0000
  C   C204      1.0  0.15244  0.10233  0.63220  1.0000
  C   C205      1.0  0.17647  0.10860  0.61652  1.0000
  C   C206      1.0  0.18670  0.18117  0.64018  1.0000
  C   C207      1.0  0.08383  0.08140  0.65503  1.0000
  C   C208      1.0  0.08122  0.13681  0.62310  1.0000
  H   H362      1.0  0.35347  0.05606  0.69338  1.0000
  H   H363      1.0  0.46098  0.19416  0.66623  1.0000
  C   C209      1.0  0.20808  0.22267  0.63617  1.0000
  C   C210      1.0  0.07048  0.07682  0.67248  1.0000
  H   H364      1.0  0.14015  0.18424  0.63352  1.0000
  H   H365      1.0  0.16523  0.17423  0.61802  1.0000
  H   H366      1.0  0.47135  0.40850  0.70742  1.0000
  H   H367      1.0  0.23039  0.29368  0.71262  1.0000
  S   S45       1.0  0.00416  0.21697  0.66405  1.0000
  H   H368      1.0  0.12758  0.32675  0.72457  1.0000
  C   C211      1.0  0.13978  0.12865  0.72718  1.0000
  H   H369      1.0  0.04694  0.03246  0.73166  1.0000
  H   H370      1.0  0.42108  0.34276  0.66165  1.0000
  H   H371      1.0  0.45711  0.33761  0.72874  1.0000
  H   H372      1.0  0.13992  0.47110  0.56444  1.0000
  H   H373      1.0  0.44089  0.45276  0.49186  1.0000
  H   H374      1.0  0.47803  0.38040  0.49664  1.0000
  C   C212      1.0  0.47835  0.38480  0.71060  1.0000
  C   C213      1.0  0.41141  0.35509  0.67149  1.0000
  H   H375      1.0  0.42646  0.47579  0.52468  1.0000
  H   H376      1.0  0.18444  0.47561  0.56013  1.0000
  C   C214      1.0  0.04301  0.14664  0.73307  1.0000
  H   H377      1.0  0.02528  0.01855  0.70060  1.0000
  H   H378      1.0  0.39731  0.43109  0.54815  1.0000
  H   H379      1.0  0.47973  0.48972  0.53542  1.0000
  H   H380      1.0  0.14255  0.23891  0.73401  1.0000
  H   H381      1.0  0.14038  0.15674  0.72855  1.0000
  C   C215      1.0  0.48963  0.48617  0.50990  1.0000
  H   H382      1.0  0.17609  0.30476  0.71727  1.0000
  H   H383      1.0  0.09667  0.17834  0.73532  1.0000
  H   H384      1.0  0.47754  0.36356  0.67196  1.0000
  H   H385      1.0  0.27565  0.17791  0.72233  1.0000
  H   H386      1.0  0.46961  0.27029  0.72086  1.0000
  H   H387      1.0  0.06144  0.99725  0.68237  1.0000
  C   C216      1.0  0.20944  0.13903  0.73902  1.0000
  C   C217      1.0  0.03068  0.00684  0.73933  1.0000
  H   H388      1.0  0.05288  0.43612  0.91730  1.0000
  H   H389      1.0  0.19728  0.24131  0.77826  1.0000
  H   H390      1.0  0.39593  0.00884  0.98561  1.0000
  C   C218      1.0  0.00213  0.22217  0.74257  1.0000
  C   C219      1.0  0.31561  0.46211  0.89654  1.0000
  C   C220      1.0  0.03604  0.10174  0.84424  1.0000
  H   H391      1.0  0.25676  0.29107  0.89874  1.0000
  Fe  Fe20      1.0  0.06379  0.17316  0.78349  1.0000
  S   S46       1.0  0.05728  0.16908  0.80975  1.0000
  S   S47       1.0  0.08193  0.13583  0.76962  1.0000
  H   H392      1.0  0.02064  0.41799  0.94520  1.0000
  Fe  Fe21      1.0  0.07715  0.23117  0.80663  1.0000
  S   S48       1.0  0.11076  0.26902  0.82271  1.0000
  H   H393      1.0  0.03090  0.09079  0.85674  1.0000
  S   S49       1.0  0.08859  0.23541  0.78040  1.0000
  Fe  Fe22      1.0  0.28609  0.42751  0.81190  1.0000
  S   S50       1.0  0.25452  0.43634  0.83267  1.0000
  S   S51       1.0  0.26778  0.37292  0.80078  1.0000
  S   S52       1.0  0.29733  0.48266  0.79920  1.0000
  H   H394      1.0  0.23442  0.48680  0.87217  1.0000
  H   H395      1.0  0.02381  0.12190  0.84272  1.0000
  H   H396      1.0  0.39211  0.48599  0.86919  1.0000
  H   H397      1.0  0.04459  0.32230  0.89806  1.0000
  C   C221      1.0  0.41417  0.47604  0.98510  1.0000
  H   H398      1.0  0.32033  0.43744  0.89907  1.0000
  S   S53       1.0  0.33579  0.44835  0.82271  1.0000
  H   H399      1.0  0.04729  0.37893  0.91020  1.0000
  C   C222      1.0  0.22294  0.34542  0.80492  1.0000
  C   C223      1.0  0.20040  0.35946  0.81256  1.0000
  C   C224      1.0  0.16559  0.33611  0.81750  1.0000
  C   C225      1.0  0.15266  0.29892  0.81416  1.0000
  C   C226      1.0  0.17460  0.28523  0.80568  1.0000
  C   C227      1.0  0.20982  0.30839  0.80121  1.0000
  H   H400      1.0  0.20974  0.38831  0.81476  1.0000
  H   H401      1.0  0.14867  0.34688  0.82396  1.0000
  H   H402      1.0  0.16478  0.25642  0.80321  1.0000
  H   H403      1.0  0.22711  0.29746  0.79519  1.0000
  C   C228      1.0  0.07933  0.09827  0.78206  1.0000
  C   C229      1.0  0.09167  0.10381  0.79659  1.0000
  C   C230      1.0  0.08990  0.07341  0.80626  1.0000
  H   H404      1.0  0.16665  0.28152  0.86086  1.0000
  H   H405      1.0  0.99907  0.03954  0.80687  1.0000
  C   C231      1.0  0.06539  0.06250  0.77721  1.0000
  H   H406      1.0  0.10312  0.13153  0.80027  1.0000
  H   H407      1.0  0.09949  0.07774  0.81751  1.0000
  H   H408      1.0  0.23213  0.27653  0.87254  1.0000
  H   H409      1.0  0.05538  0.05859  0.76612  1.0000
  H   H410      1.0  0.18887  0.19143  0.74195  1.0000
  H   H411      1.0  0.15286  0.22846  0.83317  1.0000
  H   H412      1.0  0.17003  0.39447  0.87468  1.0000
  C   C232      1.0  0.07592  0.03750  0.80140  1.0000
  H   H413      1.0  0.24265  0.30894  0.83257  1.0000
  S   S54       1.0  0.30556  0.43864  0.86720  1.0000
  H   H414      1.0  0.06251  0.39054  0.93533  1.0000
  H   H415      1.0  0.14899  0.05377  0.78839  1.0000
  H   H416      1.0  0.47569  0.00058  0.91843  1.0000
  H   H417      1.0  0.08333  0.47359  0.92553  1.0000
  H   H418      1.0  0.41805  0.34755  0.98394  1.0000
  H   H419      1.0  0.12569  0.35476  0.74958  1.0000
  H   H420      1.0  0.12163  0.46171  0.88477  1.0000
  H   H421      1.0  0.14807  0.16871  0.75345  1.0000
  C   C233      1.0  0.31771  0.48685  0.90814  1.0000
  Fe  Fe23      1.0  0.30452  0.46070  0.84272  1.0000
  H   H422      1.0  0.24603  0.14619  0.75638  1.0000
  H   H423      1.0  0.06646  0.19387  0.74575  1.0000
  C   C234      1.0  0.25750  0.33069  0.88004  1.0000
  H   H424      1.0  0.05269  0.00441  0.78305  1.0000
  C   C235      1.0  0.28448  0.35179  0.84099  1.0000
  N   N13       1.0  0.17729  0.13406  0.74992  1.0000
  C   C236      1.0  0.17525  0.11345  0.76545  1.0000
  C   C237      1.0  0.07015  0.38036  0.90216  1.0000
  S   S55       1.0  0.39207  0.47109  0.96851  1.0000
  H   H425      1.0  0.41478  0.35639  0.74354  1.0000
  H   H426      1.0  0.08255  0.32738  0.74528  1.0000
  H   H427      1.0  0.04227  0.40729  0.96054  1.0000
  C   C238      1.0  0.18898  0.19028  0.76728  1.0000
  C   C239      1.0  0.18911  0.22922  0.76716  1.0000
  C   C240      1.0  0.17542  0.17132  0.75240  1.0000
  H   H428      1.0  0.28271  0.33220  0.87415  1.0000
  H   H429      1.0  0.15094  0.11007  0.77303  1.0000
  H   H430      1.0  0.19672  0.12951  0.77204  1.0000
  H   H431      1.0  0.45252  0.45798  0.97417  1.0000
  H   H432      1.0  0.01137  0.20454  0.74902  1.0000
  C   C241      1.0  0.14614  0.11075  0.74231  1.0000
  H   H433      1.0  0.27812  0.37245  0.83428  1.0000
  Fe  Fe24      1.0  0.03374  0.23053  0.78062  1.0000
  H   H434      1.0  0.19593  0.07371  0.78719  1.0000
  H   H435      1.0  0.32214  0.32646  0.83753  1.0000
  H   H436      1.0  0.21629  0.41298  0.86877  1.0000
  H   H437      1.0  0.20075  0.07636  0.75803  1.0000
  C   C242      1.0  0.07252  0.42033  0.93747  1.0000
  H   H438      1.0  0.17162  0.17394  0.77794  1.0000
  H   H439      1.0  0.21567  0.19265  0.76837  1.0000
  C   C243      1.0  0.45011  0.02838  0.98875  1.0000
  H   H440      1.0  0.09123  0.34093  0.89361  1.0000
  H   H441      1.0  0.99866  0.99985  0.85409  1.0000
  H   H442      1.0  0.19622  0.48989  0.86603  1.0000
  H   H443      1.0  0.24771  0.18907  0.74700  1.0000
  H   H444      1.0  0.03525  0.05112  0.83556  1.0000
  C   C244      1.0  0.18949  0.35344  0.86700  1.0000
  C   C245      1.0  0.18832  0.24507  0.85080  1.0000
  H   H445      1.0  0.33698  0.37323  0.82873  1.0000
  H   H446      1.0  0.20905  0.48506  0.92140  1.0000
  C   C246      1.0  0.04606  0.42542  0.94969  1.0000
  H   H447      1.0  0.16355  0.33489  0.86421  1.0000
  C   C247      1.0  0.14124  0.46805  0.91534  1.0000
  H   H448      1.0  0.45714  0.39390  0.74133  1.0000
  C   C248      1.0  0.17613  0.07444  0.76476  1.0000
  H   H449      1.0  0.15367  0.19057  0.84530  1.0000
  H   H450      1.0  0.00771  0.99870  0.82451  1.0000
  H   H451      1.0  0.09698  0.42716  0.94268  1.0000
  H   H452      1.0  0.27801  0.33921  0.90231  1.0000
  H   H453      1.0  0.14446  0.45338  0.92599  1.0000
  H   H454      1.0  0.04049  0.12638  0.74296  1.0000
  H   H455      1.0  0.20998  0.24519  0.84227  1.0000
  S   S56       1.0  0.01906  0.26935  0.76610  1.0000
  C   C249      1.0  0.15451  0.21916  0.84530  1.0000
  H   H456      1.0  0.17679  0.45058  0.90021  1.0000
  C   C250      1.0  0.17355  0.05671  0.78124  1.0000
  H   H457      1.0  0.07094  0.33045  0.91383  1.0000
  C   C251      1.0  0.02196  0.07008  0.83377  1.0000
  H   H458      1.0  0.20771  0.24757  0.75727  1.0000
  H   H459      1.0  0.16270  0.22825  0.76619  1.0000
  H   H460      1.0  0.18563  0.47078  0.95199  1.0000
  H   H461      1.0  0.12219  0.10236  0.75089  1.0000
  H   H462      1.0  0.23467  0.48248  0.96746  1.0000
  H   H463      1.0  0.18322  0.29379  0.84071  1.0000
  C   C252      1.0  0.22727  0.30237  0.87254  1.0000
  H   H464      1.0  0.26057  0.29246  0.84749  1.0000
  C   C253      1.0  0.18714  0.00017  0.74789  1.0000
  H   H465      1.0  0.21449  0.35710  0.84334  1.0000
  S   S57       1.0  0.02409  0.23119  0.80662  1.0000
  H   H466      1.0  0.29409  0.36401  0.85178  1.0000
  C   C254      1.0  0.30793  0.46954  0.88164  1.0000
  C   C255      1.0  0.10480  0.40768  0.90712  1.0000
  H   H467      1.0  0.38631  0.39328  0.98908  1.0000
  C   C256      1.0  0.49120  0.37492  0.97973  1.0000
  H   H468      1.0  0.09035  0.03439  0.75209  1.0000
  C   C257      1.0  0.41856  0.00213  0.98507  1.0000
  H   H469      1.0  0.30620  0.33592  0.81976  1.0000
  C   C258      1.0  0.17419  0.47646  0.90347  1.0000
  C   C259      1.0  0.21888  0.35046  0.85542  1.0000
  H   H470      1.0  0.23131  0.31786  0.90408  1.0000
  N   N14       1.0  0.10684  0.44613  0.90974  1.0000
  H   H471      1.0  0.07699  0.44879  0.89113  1.0000
  H   H472      1.0  0.24329  0.37354  0.85738  1.0000
  C   C260      1.0  0.47962  0.02019  0.98769  1.0000
  H   H473      1.0  0.02436  0.01686  0.75060  1.0000
  C   C261      1.0  0.19078  0.39291  0.86606  1.0000
  H   H474      1.0  0.20285  0.29500  0.88070  1.0000
  C   C262      1.0  0.10329  0.46398  0.89455  1.0000
  H   H475      1.0  0.11034  0.39496  0.91776  1.0000
  C   C263      1.0  0.31418  0.34633  0.83116  1.0000
  C   C264      1.0  0.25562  0.31878  0.89735  1.0000
  S   S58       1.0  0.00986  0.16863  0.78122  1.0000
  H   H476      1.0  0.45081  0.99574  0.94731  1.0000
  H   H477      1.0  0.41832  0.00306  0.92623  1.0000
  H   H478      1.0  0.19002  0.23288  0.86237  1.0000
  C   C265      1.0  0.18912  0.28472  0.85209  1.0000
  H   H479      1.0  0.09723  0.25283  0.74530  1.0000
  N   N15       1.0  0.22243  0.31369  0.85629  1.0000
  H   H480      1.0  0.13159  0.21848  0.85315  1.0000
  H   H481      1.0  0.18656  0.40085  0.85416  1.0000
  C   C266      1.0  0.25184  0.31481  0.84428  1.0000
  H   H482      1.0  0.15401  0.05525  0.75933  1.0000
  H   H483      1.0  0.12538  0.40894  0.89766  1.0000
  H   H484      1.0  0.25717  0.35875  0.87947  1.0000
  C   C267      1.0  0.06374  0.03203  0.78682  1.0000
  C   C268      1.0  0.24439  0.16015  0.74523  1.0000
  H   H485      1.0  0.48032  0.36675  0.96859  1.0000
  H   H486      1.0  0.19193  0.34626  0.87928  1.0000
  C   C269      1.0  0.07818  0.44509  0.92207  1.0000
  H   H487      1.0  0.20449  0.01522  0.75597  1.0000
  H   H488      1.0  0.02925  0.08246  0.82145  1.0000
  C   C270      1.0  0.19081  0.49147  0.96036  1.0000
  C   C271      1.0  0.44348  0.46731  0.98473  1.0000
  H   H489      1.0  0.06455  0.11659  0.84096  1.0000
  C   C272      1.0  0.10702  0.32608  0.74836  1.0000
  H   H490      1.0  0.17358  0.02858  0.78051  1.0000
  S   S59       1.0  0.07349  0.00012  0.81395  1.0000
  H   H491      1.0  0.10282  0.99606  0.75118  1.0000
  H   H492      1.0  0.06721  0.38905  0.89014  1.0000
  C   C273      1.0  0.09022  0.01156  0.74499  1.0000
  C   C274      1.0  0.06933  0.34116  0.90192  1.0000
  C   C275      1.0  0.00337  0.25540  0.74837  1.0000
  H   H493      1.0  0.32409  0.48133  0.91957  1.0000
  H   H494      1.0  0.10150  0.30961  0.75985  1.0000
  H   H495      1.0  0.05554  0.45466  0.95276  1.0000
  Fe  Fe25      1.0  0.00508  0.16937  0.80733  1.0000
  S   S60       1.0  0.09713  0.91503  0.16918  1.0000
  H   H496      1.0  0.16752  0.78038  0.15660  1.0000
  H   H497      1.0  0.01349  0.75778  0.16831  1.0000
  C   C276      1.0  0.03886  0.75906  0.16243  1.0000
  C   C277      1.0  0.42128  0.86369  0.00982  1.0000
  H   H498      1.0  0.03331  0.73199  0.15743  1.0000
  S   S61       1.0  0.05332  0.83285  0.23741  1.0000
  C   C278      1.0  0.40074  0.86290  0.03746  1.0000
  H   H499      1.0  0.20486  0.98642  0.23567  1.0000
  H   H500      1.0  0.03086  0.98061  0.15861  1.0000
  C   C279      1.0  0.03614  0.69383  0.18202  1.0000
  H   H501      1.0  0.16178  0.93246  0.18581  1.0000
  H   H502      1.0  0.25183  0.94944  0.22153  1.0000
  C   C280      1.0  0.01354  0.98469  0.23215  1.0000
  H   H503      1.0  0.36148  0.88241  0.04809  1.0000
  C   C281      1.0  0.43951  0.92241  0.02211  1.0000
  C   C282      1.0  0.99929  0.83868  0.16925  1.0000
  H   H504      1.0  0.00087  0.58577  0.99486  1.0000
  C   C283      1.0  0.31582  0.86306  0.01115  1.0000
  H   H505      1.0  0.06118  0.56107  0.01601  1.0000
  C   C284      1.0  0.05683  0.88822  0.16333  1.0000
  C   C285      1.0  0.03089  0.86171  0.17407  1.0000
  C   C286      1.0  0.46233  0.98895  0.02975  1.0000
  H   H506      1.0  0.08432  0.90979  0.22820  1.0000
  C   C287      1.0  0.01911  0.86956  0.14304  1.0000
  C   C288      1.0  0.05094  0.89213  0.14781  1.0000
  H   H507      1.0  0.03516  0.85914  0.18615  1.0000
  H   H508      1.0  0.40410  0.90402  0.05432  1.0000
  H   H509      1.0  0.45281  0.84287  0.02329  1.0000
  H   H510      1.0  0.07092  0.91262  0.13948  1.0000
  C   C289      1.0  0.45544  0.85883  0.01198  1.0000
  H   H511      1.0  0.48911  0.83454  0.00068  1.0000
  C   C290      1.0  0.09607  0.93686  0.23317  1.0000
  H   H512      1.0  0.01455  0.87276  0.13104  1.0000
  H   H513      1.0  0.41979  0.96481  0.01645  1.0000
  H   H514      1.0  0.03881  0.67408  0.00802  1.0000
  S   S62       1.0  0.25911  0.53145  0.99168  1.0000
  H   H515      1.0  0.44336  0.56298  0.99425  1.0000
  H   H516      1.0  0.49332  0.55442  0.00206  1.0000
  C   C291      1.0  0.01374  0.95275  0.15582  1.0000
  H   H517      1.0  0.02908  0.80063  0.12765  1.0000
  C   C292      1.0  0.02212  0.77786  0.13708  1.0000
  H   H518      1.0  0.47363  0.64105  0.00627  1.0000
  H   H519      1.0  0.23733  0.92148  0.20555  1.0000
  C   C293      1.0  0.45976  0.59315  0.99186  1.0000
  H   H520      1.0  0.01639  0.93187  0.16405  1.0000
  H   H521      1.0  0.99917  0.61396  0.02035  1.0000
  C   C294      1.0  0.02432  0.79394  0.22965  1.0000
  H   H522      1.0  0.45526  0.93168  0.01034  1.0000
  H   H523      1.0  0.11763  0.81911  0.15271  1.0000
  H   H524      1.0  0.39935  0.58048  0.01211  1.0000
  C   C295      1.0  0.01659  0.65932  0.00147  1.0000
  H   H525      1.0  0.01603  0.55307  0.01600  1.0000
  H   H526      1.0  0.22743  0.89303  0.24030  1.0000
  Fe  Fe26      1.0  0.10548  0.97515  0.16938  1.0000
  H   H527      1.0  0.32299  0.88072  0.99989  1.0000
  H   H528      1.0  0.41050  0.94890  0.03684  1.0000
  H   H529      1.0  0.25784  0.88963  0.22476  1.0000
  H   H530      1.0  0.41597  0.62293  0.02158  1.0000
  H   H531      1.0  0.14942  0.97568  0.20938  1.0000
  H   H532      1.0  0.19501  0.92264  0.16260  1.0000
  H   H533      1.0  0.47770  0.88603  0.01159  1.0000
  H   H534      1.0  0.35182  0.83779  0.00589  1.0000
  H   H535      1.0  0.46901  0.98481  0.07795  1.0000
  C   C296      1.0  0.15623  0.79632  0.14970  1.0000
  H   H536      1.0  0.00982  0.82789  0.21400  1.0000
  H   H537      1.0  0.29338  0.83691  0.00986  1.0000
  C   C297      1.0  0.05022  0.78777  0.14799  1.0000
  H   H538      1.0  0.44367  0.80912  0.99933  1.0000
  C   C298      1.0  0.45541  0.61150  0.00712  1.0000
  C   C299      1.0  0.04167  0.56275  0.00863  1.0000
  H   H539      1.0  0.14618  0.78122  0.13944  1.0000
  H   H540      1.0  0.99669  0.77386  0.14362  1.0000
  C   C300      1.0  0.41852  0.60978  0.01060  1.0000
  C   C301      1.0  0.01952  0.75774  0.23460  1.0000
  H   H541      1.0  0.36156  0.86182  0.07543  1.0000
  C   C302      1.0  0.23199  0.89079  0.22750  1.0000
  H   H542      1.0  0.17715  0.82368  0.14531  1.0000
  H   H543      1.0  0.13864  0.92744  0.21044  1.0000
  N   N16       1.0  0.19157  0.95996  0.21430  1.0000
  N   N17       1.0  0.06419  0.76511  0.17427  1.0000
  C   C303      1.0  0.06897  0.80075  0.18160  1.0000
  H   H544      1.0  0.02245  0.94926  0.14359  1.0000
  C   C304      1.0  0.04761  0.73386  0.18715  1.0000
  C   C305      1.0  0.09802  0.76434  0.16689  1.0000
  C   C306      1.0  0.12719  0.80212  0.15990  1.0000
  C   C307      1.0  0.08987  0.80799  0.19584  1.0000
  H   H545      1.0  0.18896  0.90938  0.19118  1.0000
  C   C308      1.0  0.19493  0.92603  0.22146  1.0000
  H   H546      1.0  0.05523  0.81605  0.15151  1.0000
  C   C309      1.0  0.23108  0.92425  0.21816  1.0000
  C   C310      1.0  0.10303  0.84865  0.19932  1.0000
  C   C311      1.0  0.13514  0.94826  0.23292  1.0000
  H   H547      1.0  0.04315  0.80084  0.18585  1.0000
  H   H548      1.0  0.08123  0.82517  0.17284  1.0000
  H   H549      1.0  0.34591  0.68696  0.99884  1.0000
  C   C312      1.0  0.20806  0.94548  0.16991  1.0000
  H   H550      1.0  0.42438  0.86127  0.04145  1.0000
  H   H551      1.0  0.06555  0.73631  0.19605  1.0000
  H   H552      1.0  0.10982  0.75276  0.17558  1.0000
  H   H553      1.0  0.09297  0.74480  0.15752  1.0000
  H   H554      1.0  0.13905  0.81907  0.16940  1.0000
  C   C313      1.0  0.34631  0.85411  0.01522  1.0000
  H   H555      1.0  0.07299  0.79109  0.20644  1.0000
  H   H556      1.0  0.11239  0.80009  0.19401  1.0000
  H   H557      1.0  0.05702  0.69081  0.17398  1.0000
  C   C314      1.0  0.99528  0.72750  0.22819  1.0000
  H   H558      1.0  0.26880  0.69876  0.23901  1.0000
  H   H559      1.0  0.07371  0.78769  0.14096  1.0000
  H   H560      1.0  0.01942  0.75191  0.13161  1.0000
  H   H561      1.0  0.04957  0.67013  0.20245  1.0000
  C   C315      1.0  0.05267  0.60277  0.00176  1.0000
  C   C316      1.0  0.37872  0.89016  0.01639  1.0000
  C   C317      1.0  0.20607  0.96768  0.19717  1.0000
  H   H562      1.0  0.20737  0.97137  0.16459  1.0000
  H   H563      1.0  0.12145  0.86654  0.18928  1.0000
  H   H564      1.0  0.08104  0.85740  0.20157  1.0000
  H   H565      1.0  0.11655  0.85250  0.20992  1.0000
  C   C318      1.0  0.37253  0.85027  0.06571  1.0000
  H   H566      1.0  0.02415  0.73582  0.19351  1.0000
  C   C319      1.0  0.15352  0.95311  0.21592  1.0000
  H   H567      1.0  0.36977  0.90743  0.02408  1.0000
  H   H568      1.0  0.17529  0.90018  0.21778  1.0000
  C   C320      1.0  0.46449  0.83739  0.99902  1.0000
  H   H569      1.0  0.18894  0.92395  0.23442  1.0000
  C   C321      1.0  0.18900  0.93616  0.18661  1.0000
  H   H570      1.0  0.00716  0.68089  0.99787  1.0000
  H   H571      1.0  0.47195  0.98249  0.04054  1.0000
  H   H572      1.0  0.30776  0.87769  0.02054  1.0000
  H   H573      1.0  0.21185  0.86457  0.22445  1.0000
  H   H574      1.0  0.38319  0.83352  0.03645  1.0000
  H   H575      1.0  0.41250  0.62490  0.00091  1.0000
  H   H576      1.0  0.03912  0.98321  0.22883  1.0000
  H   H577      1.0  0.14555  0.97440  0.23873  1.0000
  H   H578      1.0  0.03989  0.54403  0.99912  1.0000
  H   H579      1.0  0.45782  0.92002  0.03010  1.0000
  H   H580      1.0  0.33764  0.83643  0.02647  1.0000
  H   H581      1.0  0.05422  0.62056  0.01157  1.0000
  H   H582      1.0  0.99849  0.97806  0.22203  1.0000
  H   H583      1.0  0.35206  0.82354  0.06333  1.0000
  H   H584      1.0  0.09031  0.95750  0.22620  1.0000
  N   N18       1.0  0.40971  0.88509  0.02176  1.0000
  C   C322      1.0  0.02665  0.66544  0.19620  1.0000
  H   H585      1.0  0.42473  0.87738  0.99783  1.0000
  H   H586      1.0  0.39474  0.84506  0.06952  1.0000
  H   H587      1.0  0.13830  0.92603  0.24004  1.0000
  C   C323      1.0  0.38446  0.87776  0.05110  1.0000
  C   C324      1.0  0.43027  0.95578  0.02643  1.0000
  H   H588      1.0  0.07931  0.61195  0.99534  1.0000
  H   H589      1.0  0.23550  0.94892  0.16983  1.0000
  H   H590      1.0  0.40106  0.83514  0.00976  1.0000
  C   C325      1.0  0.00582  0.79988  0.21800  1.0000
  H   H591      1.0  0.38640  0.90597  0.00464  1.0000
  H   H592      1.0  0.23463  0.97539  0.19565  1.0000
  H   H593      1.0  0.01749  0.63699  0.19227  1.0000
  H   H594      1.0  0.46005  0.59659  0.01730  1.0000
  H   H595      1.0  0.41148  0.50154  0.02240  1.0000
  H   H596      1.0  0.20911  0.56467  0.99084  1.0000
  H   H597      1.0  0.00543  0.66736  0.20445  1.0000
  H   H598      1.0  0.01251  0.68659  0.17605  1.0000
  H   H599      1.0  0.37942  0.49364  0.99938  1.0000
  S   S63       1.0  0.37057  0.76614  0.99191  1.0000
  Fe  Fe27      1.0  0.29165  0.52690  0.32195  1.0000
  H   H600      1.0  0.18160  0.54165  0.29825  1.0000
  S   S64       1.0  0.29644  0.58200  0.31149  1.0000
  H   H601      1.0  0.20573  0.59803  0.27992  1.0000
  H   H602      1.0  0.30732  0.63548  0.48991  1.0000
  H   H603      1.0  0.21248  0.56352  0.31152  1.0000
  Fe  Fe28      1.0  0.29805  0.74885  0.34463  1.0000
  S   S65       1.0  0.31370  0.76561  0.31887  1.0000
  S   S66       1.0  0.26031  0.69152  0.35378  1.0000
  Fe  Fe29      1.0  0.34836  0.82215  0.35394  1.0000
  S   S67       1.0  0.36866  0.84506  0.32895  1.0000
  S   S68       1.0  0.36570  0.85566  0.37443  1.0000
  Fe  Fe30      1.0  0.31271  0.82009  0.32486  1.0000
  S   S69       1.0  0.29189  0.85400  0.31056  1.0000
  Fe  Fe31      1.0  0.36782  0.78854  0.32536  1.0000
  S   S70       1.0  0.40904  0.77678  0.31073  1.0000
  S   S71       1.0  0.29223  0.80150  0.35021  1.0000
  S   S72       1.0  0.35206  0.76759  0.35072  1.0000
  Fe  Fe32      1.0  0.14291  0.88864  0.27085  1.0000
  H   H604      1.0  0.01312  0.80576  0.34498  1.0000
  S   S73       1.0  0.16723  0.77358  0.27231  1.0000
  C   C326      1.0  0.45535  0.49412  0.29486  1.0000
  C   C327      1.0  0.48350  0.59794  0.31374  1.0000
  H   H605      1.0  0.26364  0.67451  0.43146  1.0000
  H   H606      1.0  0.20042  0.89661  0.32447  1.0000
  H   H607      1.0  0.05960  0.96136  0.29050  1.0000
  C   C328      1.0  0.20339  0.84860  0.33686  1.0000
  C   C329      1.0  0.47597  0.74173  0.39362  1.0000
  C   C330      1.0  0.45937  0.55662  0.33761  1.0000
  H   H608      1.0  0.45885  0.74490  0.30335  1.0000
  C   C331      1.0  0.26589  0.96477  0.27838  1.0000
  H   H609      1.0  0.41984  0.52250  0.42715  1.0000
  H   H610      1.0  0.46417  0.81913  0.37640  1.0000
  S   S74       1.0  0.48307  0.53718  0.45105  1.0000
  H   H611      1.0  0.43371  0.66990  0.30790  1.0000
  H   H612      1.0  0.01018  0.84766  0.26946  1.0000
  N   N19       1.0  0.28853  0.74276  0.41259  1.0000
  C   C332      1.0  0.43354  0.66620  0.47240  1.0000
  H   H613      1.0  0.47120  0.49754  0.40755  1.0000
  H   H614      1.0  0.39491  0.71022  0.41823  1.0000
  H   H615      1.0  0.42690  0.51506  0.27242  1.0000
  H   H616      1.0  0.40052  0.55934  0.46946  1.0000
  H   H617      1.0  0.05748  0.91765  0.31064  1.0000
  H   H618      1.0  0.44856  0.70222  0.43321  1.0000
  C   C333      1.0  0.40455  0.85761  0.38091  1.0000
  C   C334      1.0  0.42079  0.83480  0.37525  1.0000
  C   C335      1.0  0.45170  0.83680  0.38063  1.0000
  H   H619      1.0  0.48125  0.70536  0.44561  1.0000
  C   C336      1.0  0.44993  0.88369  0.39762  1.0000
  C   C337      1.0  0.41918  0.88204  0.39212  1.0000
  H   H620      1.0  0.40958  0.81571  0.36672  1.0000
  S   S75       1.0  0.39006  0.51420  0.34606  1.0000
  H   H621      1.0  0.46111  0.90262  0.40625  1.0000
  H   H622      1.0  0.40663  0.89960  0.39661  1.0000
  C   C338      1.0  0.35398  0.78326  0.41208  1.0000
  H   H623      1.0  0.22275  0.65648  0.26907  1.0000
  C   C339      1.0  0.34986  0.68668  0.43560  1.0000
  C   C340      1.0  0.43968  0.77068  0.32156  1.0000
  C   C341      1.0  0.44319  0.78285  0.33656  1.0000
  C   C342      1.0  0.44788  0.90036  0.34271  1.0000
  C   C343      1.0  0.37921  0.81135  0.42149  1.0000
  C   C344      1.0  0.46147  0.75435  0.31497  1.0000
  H   H624      1.0  0.42691  0.79609  0.34158  1.0000
  C   C345      1.0  0.02140  0.82617  0.32068  1.0000
  C   C346      1.0  0.25902  0.83070  0.29914  1.0000
  C   C347      1.0  0.24752  0.85169  0.28940  1.0000
  C   C348      1.0  0.21954  0.83417  0.28105  1.0000
  C   C349      1.0  0.20331  0.79548  0.28217  1.0000
  C   C350      1.0  0.21520  0.77433  0.29162  1.0000
  C   C351      1.0  0.24302  0.79190  0.30017  1.0000
  H   H625      1.0  0.25999  0.88166  0.28848  1.0000
  H   H626      1.0  0.21069  0.85065  0.27366  1.0000
  H   H627      1.0  0.20211  0.74447  0.29263  1.0000
  H   H628      1.0  0.25169  0.77566  0.30775  1.0000
  C   C352      1.0  0.42587  0.54605  0.33339  1.0000
  H   H629      1.0  0.46314  0.54482  0.34848  1.0000
  H   H630      1.0  0.37774  0.71208  0.27756  1.0000
  C   C353      1.0  0.01156  0.84539  0.30939  1.0000
  C   C354      1.0  0.45020  0.58655  0.30928  1.0000
  C   C355      1.0  0.42147  0.56110  0.31919  1.0000
  H   H631      1.0  0.43817  0.57388  0.37024  1.0000
  C   C356      1.0  0.17680  0.97713  0.27992  1.0000
  H   H632      1.0  0.44647  0.59834  0.29840  1.0000
  H   H633      1.0  0.39592  0.55429  0.31599  1.0000
  C   C357      1.0  0.29002  0.61017  0.32575  1.0000
  C   C358      1.0  0.31152  0.64793  0.32412  1.0000
  C   C359      1.0  0.30386  0.67238  0.33367  1.0000
  C   C360      1.0  0.27371  0.65947  0.34447  1.0000
  C   C361      1.0  0.25296  0.62135  0.34669  1.0000
  C   C362      1.0  0.26134  0.59657  0.33743  1.0000
  H   H634      1.0  0.33353  0.65851  0.31506  1.0000
  H   H635      1.0  0.32054  0.70151  0.33209  1.0000
  H   H636      1.0  0.22971  0.61115  0.35512  1.0000
  H   H637      1.0  0.24450  0.56735  0.33870  1.0000
  H   H638      1.0  0.32094  0.74439  0.43069  1.0000
  H   H639      1.0  0.01947  0.94105  0.31281  1.0000
  H   H640      1.0  0.43200  0.87021  0.34532  1.0000
  H   H641      1.0  0.37668  0.80003  0.43377  1.0000
  H   H642      1.0  0.32034  0.69172  0.26821  1.0000
  C   C363      1.0  0.08767  0.83103  0.35765  1.0000
  H   H643      1.0  0.47034  0.60417  0.38120  1.0000
  H   H644      1.0  0.06844  0.80517  0.36434  1.0000
  H   H645      1.0  0.09175  0.85442  0.36512  1.0000
  C   C364      1.0  0.25481  0.69530  0.43651  1.0000
  H   H646      1.0  0.07701  0.83669  0.34705  1.0000
  H   H647      1.0  0.23973  0.90628  0.33328  1.0000
  C   C365      1.0  0.08338  0.93537  0.31353  1.0000
  Fe  Fe33      1.0  0.45988  0.82164  0.45417  1.0000
  H   H648      1.0  0.22433  0.83976  0.33964  1.0000
  H   H649      1.0  0.25000  0.74635  0.43039  1.0000
  H   H650      1.0  0.01483  0.94278  0.33308  1.0000
  C   C366      1.0  0.09840  0.90949  0.32055  1.0000
  Fe  Fe34      1.0  0.46768  0.55306  0.47444  1.0000
  H   H651      1.0  0.37555  0.68181  0.47832  1.0000
  C   C367      1.0  0.99816  0.98019  0.31988  1.0000
  C   C368      1.0  0.21821  0.67419  0.44515  1.0000
  H   H652      1.0  0.02598  0.91388  0.26041  1.0000
  H   H653      1.0  0.19322  0.80812  0.32001  1.0000
  H   H654      1.0  0.15970  0.74608  0.32445  1.0000
  C   C369      1.0  0.22027  0.88578  0.32692  1.0000
  H   H655      1.0  0.21778  0.78419  0.36897  1.0000
  H   H656      1.0  0.31134  0.78395  0.42869  1.0000
  H   H657      1.0  0.22116  0.74176  0.36355  1.0000
  S   S76       1.0  0.18028  0.94801  0.26562  1.0000
  C   C370      1.0  0.38526  0.74587  0.45300  1.0000
  H   H658      1.0  0.01813  0.88511  0.24421  1.0000
  S   S77       1.0  0.25826  0.60426  0.46289  1.0000
  H   H659      1.0  0.37571  0.52041  0.44686  1.0000
  H   H660      1.0  0.21875  0.65425  0.45453  1.0000
  H   H661      1.0  0.27187  0.70880  0.44540  1.0000
  S   S78       1.0  0.48769  0.62018  0.42135  1.0000
  H   H662      1.0  0.29021  0.64359  0.39644  1.0000
  Fe  Fe35      1.0  0.25125  0.51692  0.44220  1.0000
  S   S79       1.0  0.16131  0.56990  0.45952  1.0000
  H   H663      1.0  0.42336  0.63637  0.47005  1.0000
  H   H664      1.0  0.19151  0.85390  0.34803  1.0000
  C   C371      1.0  0.25339  0.71164  0.24594  1.0000
  H   H665      1.0  0.17572  0.72983  0.34682  1.0000
  Fe  Fe36      1.0  0.33745  0.49739  0.33759  1.0000
  H   H666      1.0  0.23383  0.88280  0.31568  1.0000
  H   H667      1.0  0.08386  0.93430  0.24544  1.0000
  H   H668      1.0  0.40629  0.81848  0.41607  1.0000
  H   H669      1.0  0.39464  0.67865  0.30834  1.0000
  C   C372      1.0  0.47095  0.73241  0.48792  1.0000
  C   C373      1.0  0.44084  0.53006  0.40299  1.0000
  H   H670      1.0  0.09479  0.75826  0.31709  1.0000
  N   N20       1.0  0.39750  0.64953  0.35578  1.0000
  C   C374      1.0  0.40804  0.68152  0.36599  1.0000
  C   C375      1.0  0.42194  0.62964  0.35601  1.0000
  C   C376      1.0  0.40088  0.66563  0.33917  1.0000
  C   C377      1.0  0.36025  0.62255  0.36041  1.0000
  C   C378      1.0  0.34942  0.60894  0.37804  1.0000
  C   C379      1.0  0.38593  0.70513  0.36625  1.0000
  C   C380      1.0  0.39281  0.63728  0.32657  1.0000
  C   C381      1.0  0.43908  0.62959  0.37110  1.0000
  C   C382      1.0  0.45727  0.60280  0.37061  1.0000
  C   C383      1.0  0.31120  0.58240  0.38137  1.0000
  Fe  Fe37      1.0  0.08421  0.83098  0.25692  1.0000
  C   C384      1.0  0.40487  0.65686  0.31003  1.0000
  H   H671      1.0  0.43561  0.70075  0.36214  1.0000
  H   H672      1.0  0.40739  0.67178  0.37834  1.0000
  H   H673      1.0  0.40865  0.60024  0.35334  1.0000
  H   H674      1.0  0.44435  0.64216  0.34651  1.0000
  H   H675      1.0  0.42764  0.68713  0.33572  1.0000
  H   H676      1.0  0.38307  0.68007  0.33810  1.0000
  H   H677      1.0  0.34196  0.63456  0.35673  1.0000
  H   H678      1.0  0.35452  0.59736  0.35387  1.0000
  H   H679      1.0  0.35288  0.63245  0.38536  1.0000
  H   H680      1.0  0.36471  0.59357  0.38186  1.0000
  H   H681      1.0  0.39211  0.72256  0.35503  1.0000
  H   H682      1.0  0.35780  0.68754  0.36798  1.0000
  H   H683      1.0  0.36446  0.62031  0.32766  1.0000
  H   H684      1.0  0.40593  0.61813  0.32782  1.0000
  H   H685      1.0  0.45897  0.65780  0.37215  1.0000
  H   H686      1.0  0.42001  0.62136  0.38178  1.0000
  S   S80       1.0  0.22087  0.51363  0.46557  1.0000
  H   H687      1.0  0.45138  0.66048  0.44112  1.0000
  C   C385      1.0  0.46872  0.77913  0.34485  1.0000
  H   H688      1.0  0.30332  0.57665  0.39424  1.0000
  H   H689      1.0  0.29430  0.59456  0.37639  1.0000
  H   H690      1.0  0.30711  0.55568  0.37635  1.0000
  H   H691      1.0  0.35097  0.54669  0.40917  1.0000
  H   H692      1.0  0.42096  0.75060  0.37778  1.0000
  H   H693      1.0  0.18225  0.73972  0.37507  1.0000
  H   H694      1.0  0.26528  0.65925  0.26364  1.0000
  H   H695      1.0  0.39546  0.63629  0.30131  1.0000
  C   C386      1.0  0.26041  0.71239  0.26301  1.0000
  H   H696      1.0  0.24418  0.80920  0.39244  1.0000
  H   H697      1.0  0.28835  0.83112  0.38265  1.0000
  C   C387      1.0  0.27158  0.82574  0.39406  1.0000
  N   N21       1.0  0.25483  0.66972  0.28778  1.0000
  C   C388      1.0  0.29098  0.69477  0.29061  1.0000
  C   C389      1.0  0.22925  0.68162  0.29715  1.0000
  C   C390      1.0  0.24881  0.63022  0.29270  1.0000
  C   C391      1.0  0.25035  0.67253  0.27069  1.0000
  H   H698      1.0  0.28274  0.95992  0.28654  1.0000
  C   C392      1.0  0.32128  0.68877  0.28099  1.0000
  C   C393      1.0  0.21161  0.60068  0.29219  1.0000
  C   C394      1.0  0.22568  0.67455  0.31524  1.0000
  C   C395      1.0  0.19841  0.68675  0.32335  1.0000
  C   C396      1.0  0.13709  0.75266  0.32873  1.0000
  C   C397      1.0  0.35633  0.71711  0.28432  1.0000
  N   N22       1.0  0.14858  0.78624  0.33809  1.0000
  H   H699      1.0  0.29422  0.69112  0.30310  1.0000
  H   H700      1.0  0.29523  0.72450  0.28865  1.0000
  H   H701      1.0  0.23697  0.71193  0.29476  1.0000
  H   H702      1.0  0.20296  0.66844  0.29342  1.0000
  H   H703      1.0  0.25567  0.62817  0.30469  1.0000
  H   H704      1.0  0.26651  0.62109  0.28514  1.0000
  C   C398      1.0  0.17490  0.96670  0.29582  1.0000
  C   C399      1.0  0.46623  0.86106  0.39183  1.0000
  H   H705      1.0  0.24514  0.72637  0.26922  1.0000
  C   C400      1.0  0.06639  0.50891  0.48366  1.0000
  H   H706      1.0  0.32060  0.66084  0.28421  1.0000
  H   H707      1.0  0.47190  0.78912  0.35628  1.0000
  C   C401      1.0  0.37825  0.66050  0.48633  1.0000
  H   H708      1.0  0.19166  0.60772  0.29908  1.0000
  H   H709      1.0  0.21778  0.64479  0.31906  1.0000
  H   H710      1.0  0.25060  0.69061  0.31958  1.0000
  H   H711      1.0  0.20619  0.71702  0.32080  1.0000
  H   H712      1.0  0.17265  0.67145  0.31948  1.0000
  N   N23       1.0  0.37568  0.50914  0.41396  1.0000
  C   C402      1.0  0.29739  0.71407  0.40420  1.0000
  H   H713      1.0  0.35889  0.71461  0.29698  1.0000
  H   H714      1.0  0.38689  0.71477  0.39101  1.0000
  H   H715      1.0  0.35916  0.74583  0.28093  1.0000
  C   C403      1.0  0.15995  0.77513  0.35286  1.0000
  C   C404      1.0  0.28342  0.80537  0.40618  1.0000
  S   S81       1.0  0.40795  0.77954  0.46513  1.0000
  H   H716      1.0  0.44583  0.55993  0.40195  1.0000
  H   H717      1.0  0.34808  0.57366  0.47084  1.0000
  C   C405      1.0  0.18777  0.75851  0.35034  1.0000
  H   H718      1.0  0.47736  0.61042  0.36023  1.0000
  H   H719      1.0  0.33948  0.72351  0.46992  1.0000
  H   H720      1.0  0.09337  0.69600  0.31262  1.0000
  H   H721      1.0  0.16996  0.79859  0.36019  1.0000
  H   H722      1.0  0.19615  0.68074  0.33624  1.0000
  H   H723      1.0  0.37492  0.61536  0.41181  1.0000
  H   H724      1.0  0.45248  0.73885  0.40161  1.0000
  Fe  Fe38      1.0  0.28603  0.60078  0.43974  1.0000
  H   H725      1.0  0.09505  0.77023  0.34811  1.0000
  Fe  Fe39      1.0  0.13677  0.80933  0.27172  1.0000
  H   H726      1.0  0.10876  0.80398  0.33170  1.0000
  H   H727      1.0  0.42604  0.76267  0.43348  1.0000
  S   S82       1.0  0.14229  0.84893  0.29028  1.0000
  S   S83       1.0  0.30154  0.55628  0.44880  1.0000
  C   C406      1.0  0.33422  0.69092  0.45009  1.0000
  C   C407      1.0  0.47456  0.52703  0.40629  1.0000
  C   C408      1.0  0.35126  0.55727  0.48042  1.0000
  C   C409      1.0  0.38275  0.71315  0.42948  1.0000
  C   C410      1.0  0.40046  0.74277  0.43815  1.0000
  S   S84       1.0  0.33170  0.50658  0.31242  1.0000
  C   C411      1.0  0.45408  0.68892  0.44362  1.0000
  H   H728      1.0  0.31008  0.82412  0.40811  1.0000
  H   H729      1.0  0.44789  0.90816  0.33016  1.0000
  C   C412      1.0  0.38948  0.57449  0.42371  1.0000
  S   S85       1.0  0.14212  0.85081  0.25197  1.0000
  H   H730      1.0  0.16564  0.83189  0.32012  1.0000
  H   H731      1.0  0.17671  0.98498  0.31918  1.0000
  H   H732      1.0  0.00820  0.72827  0.26957  1.0000
  S   S86       1.0  0.23799  0.56129  0.43085  1.0000
  H   H733      1.0  0.43506  0.51866  0.39157  1.0000
  C   C413      1.0  0.12217  0.82752  0.35302  1.0000
  H   H734      1.0  0.23862  0.95310  0.28419  1.0000
  H   H735      1.0  0.48306  0.54023  0.41712  1.0000
  H   H736      1.0  0.10187  0.89121  0.31160  1.0000
  H   H737      1.0  0.25856  0.75388  0.39563  1.0000
  H   H738      1.0  0.49400  0.88347  0.32580  1.0000
  H   H739      1.0  0.37718  0.74748  0.37933  1.0000
  H   H740      1.0  0.39371  0.56111  0.39953  1.0000
  H   H741      1.0  0.35301  0.79810  0.40108  1.0000
  H   H742      1.0  0.25771  0.63690  0.38349  1.0000
  C   C414      1.0  0.39658  0.61434  0.41785  1.0000
  H   H743      1.0  0.31912  0.72770  0.39456  1.0000
  H   H744      1.0  0.28842  0.72962  0.26308  1.0000
  H   H745      1.0  0.10961  0.98251  0.32537  1.0000
  C   C415      1.0  0.11737  0.79543  0.34240  1.0000
  H   H746      1.0  0.42117  0.62642  0.40969  1.0000
  H   H747      1.0  0.14001  0.85428  0.34654  1.0000
  N   N24       1.0  0.06152  0.98674  0.32101  1.0000
  H   H748      1.0  0.41352  0.57462  0.42780  1.0000
  H   H749      1.0  0.07176  0.94962  0.33699  1.0000
  H   H750      1.0  0.30846  0.67178  0.45463  1.0000
  H   H751      1.0  0.27354  0.85287  0.39814  1.0000
  H   H752      1.0  0.08032  0.89176  0.33073  1.0000
  H   H753      1.0  0.30018  0.67329  0.37840  1.0000
  H   H754      1.0  0.39911  0.63156  0.42793  1.0000
  H   H755      1.0  0.45340  0.52152  0.29572  1.0000
  H   H756      1.0  0.26593  0.80066  0.41729  1.0000
  H   H757      1.0  0.25803  0.51391  0.40626  1.0000
  H   H758      1.0  0.25702  0.69835  0.38841  1.0000
  C   C416      1.0  0.35173  0.72052  0.45869  1.0000
  S   S87       1.0  0.07842  0.78519  0.27481  1.0000
  S   S88       1.0  0.08540  0.87209  0.27448  1.0000
  C   C417      1.0  0.38118  0.54950  0.47970  1.0000
  S   S89       1.0  0.29954  0.52094  0.34704  1.0000
  H   H759      1.0  0.13216  0.82327  0.36401  1.0000
  H   H760      1.0  0.32299  0.50532  0.39362  1.0000
  H   H761      1.0  0.24467  0.50131  0.37901  1.0000
  H   H762      1.0  0.30760  0.69921  0.41215  1.0000
  C   C418      1.0  0.12422  0.53210  0.46871  1.0000
  C   C419      1.0  0.20309  0.75598  0.36546  1.0000
  H   H763      1.0  0.17341  0.93939  0.29946  1.0000
  H   H764      1.0  0.13600  0.71694  0.30123  1.0000
  C   C420      1.0  0.17716  0.81825  0.32811  1.0000
  H   H765      1.0  0.37913  0.52141  0.25989  1.0000
  H   H766      1.0  0.20035  0.65811  0.43697  1.0000
  C   C421      1.0  0.31767  0.76358  0.42177  1.0000
  H   H767      1.0  0.13710  0.75399  0.36043  1.0000
  C   C422      1.0  0.37478  0.51111  0.27246  1.0000
  S   S90       1.0  0.05362  0.80921  0.31593  1.0000
  C   C423      1.0  0.37716  0.54778  0.41081  1.0000
  S   S91       1.0  0.46437  0.87365  0.44071  1.0000
  S   S92       1.0  0.32852  0.64882  0.42498  1.0000
  C   C424      1.0  0.48808  0.58294  0.32793  1.0000
  C   C425      1.0  0.25542  0.72499  0.42385  1.0000
  H   H768      1.0  0.43559  0.91567  0.35004  1.0000
  C   C426      1.0  0.11990  0.75571  0.31396  1.0000
  H   H769      1.0  0.09982  0.72396  0.29453  1.0000
  H   H770      1.0  0.10033  0.94984  0.30250  1.0000
  H   H771      1.0  0.40199  0.67324  0.45488  1.0000
  C   C427      1.0  0.39332  0.73100  0.37943  1.0000
  H   H772      1.0  0.23269  0.71239  0.41735  1.0000
  H   H773      1.0  0.20800  0.69358  0.45066  1.0000
  Fe  Fe40      1.0  0.08428  0.82786  0.29202  1.0000
  C   C428      1.0  0.09526  0.53819  0.47532  1.0000
  C   C429      1.0  0.48682  0.75036  0.32336  1.0000
  H   H774      1.0  0.43283  0.71627  0.46033  1.0000
  C   C430      1.0  0.42874  0.68749  0.45794  1.0000
  H   H775      1.0  0.36887  0.56625  0.43387  1.0000
  C   C431      1.0  0.20811  0.56266  0.29899  1.0000
  C   C432      1.0  0.26739  0.68475  0.39690  1.0000
  Fe  Fe41      1.0  0.27043  0.55682  0.47132  1.0000
  C   C433      1.0  0.28343  0.76841  0.40046  1.0000
  H   H776      1.0  0.24581  0.66766  0.40603  1.0000
  H   H777      1.0  0.26712  0.94969  0.26784  1.0000
  H   H778      1.0  0.36469  0.76238  0.40890  1.0000
  H   H779      1.0  0.37419  0.83706  0.42161  1.0000
  H   H780      1.0  0.20923  0.77525  0.34106  1.0000
  C   C434      1.0  0.11184  0.72093  0.30511  1.0000
  H   H781      1.0  0.11842  0.72775  0.33632  1.0000
  H   H782      1.0  0.13743  0.77998  0.30591  1.0000
  C   C435      1.0  0.27981  0.65807  0.38831  1.0000
  S   S93       1.0  0.47931  0.61164  0.46596  1.0000
  H   H783      1.0  0.30375  0.77588  0.39007  1.0000
  Fe  Fe42      1.0  0.21116  0.56106  0.45493  1.0000
  H   H784      1.0  0.12397  0.92542  0.32443  1.0000
  C   C436      1.0  0.08195  0.96421  0.32501  1.0000
  C   C437      1.0  0.06128  0.99011  0.29062  1.0000
  H   H785      1.0  0.02347  0.84952  0.29738  1.0000
  H   H786      1.0  0.19327  0.55891  0.48871  1.0000
  H   H787      1.0  0.22730  0.55387  0.29240  1.0000
  H   H788      1.0  0.37864  0.53496  0.27964  1.0000
  H   H789      1.0  0.22531  0.69589  0.24520  1.0000
  H   H790      1.0  0.46175  0.67471  0.47254  1.0000
  H   H791      1.0  0.47273  0.71395  0.38989  1.0000
  C   C438      1.0  0.02366  0.96102  0.32187  1.0000
  H   H792      1.0  0.09538  0.56575  0.47422  1.0000
  H   H793      1.0  0.47850  0.76048  0.38315  1.0000
  C   C439      1.0  0.48491  0.90985  0.34633  1.0000
  H   H794      1.0  0.03466  0.98905  0.29032  1.0000
  H   H795      1.0  0.48679  0.85630  0.34357  1.0000
  C   C440      1.0  0.41080  0.50945  0.41636  1.0000
  H   H796      1.0  0.48374  0.90547  0.35923  1.0000
  H   H797      1.0  0.38153  0.50440  0.38881  1.0000
  C   C441      1.0  0.49090  0.76345  0.33820  1.0000
  H   H798      1.0  0.04449  0.51403  0.48896  1.0000
  H   H799      1.0  0.36730  0.63403  0.48071  1.0000
  H   H800      1.0  0.47619  0.74037  0.47512  1.0000
  H   H801      1.0  0.39300  0.49942  0.30042  1.0000
  C   C442      1.0  0.00583  0.89140  0.25515  1.0000
  C   C443      1.0  0.00584  0.82086  0.33623  1.0000
  H   H802      1.0  0.99916  0.96361  0.24209  1.0000
  N   N25       1.0  0.41614  0.67052  0.48797  1.0000
  H   H803      1.0  0.41833  0.72673  0.48819  1.0000
  H   H804      1.0  0.03441  0.75315  0.24334  1.0000
  H   H805      1.0  0.47440  0.50206  0.31778  1.0000
  H   H806      1.0  0.32667  0.49726  0.42846  1.0000
  H   H807      1.0  0.20989  0.62608  0.48741  1.0000
  C   C444      1.0  0.40025  0.49344  0.27555  1.0000
  C   C445      1.0  0.12361  0.49628  0.46999  1.0000
  C   C446      1.0  0.48226  0.49497  0.30602  1.0000
  H   H808      1.0  0.46730  0.49505  0.28260  1.0000
  H   H809      1.0  0.26093  0.74047  0.24072  1.0000
  C   C447      1.0  0.03085  0.75639  0.60853  1.0000
  H   H810      1.0  0.17994  0.56438  0.52417  1.0000
  H   H811      1.0  0.46535  0.67238  0.51067  1.0000
  H   H812      1.0  0.12460  0.55287  0.52854  1.0000
  C   C448      1.0  0.14299  0.96028  0.72694  1.0000
  H   H813      1.0  0.10298  0.50852  0.54006  1.0000
  C   C449      1.0  0.36042  0.51567  0.50532  1.0000
  H   H814      1.0  0.05566  0.96756  0.73374  1.0000
  C   C450      1.0  0.08973  0.75492  0.59976  1.0000
  C   C451      1.0  0.18472  0.54852  0.51450  1.0000
  H   H815      1.0  0.04613  0.91651  0.65738  1.0000
  H   H816      1.0  0.21173  0.55034  0.51487  1.0000
  H   H817      1.0  0.01670  0.96537  0.68474  1.0000
  H   H818      1.0  0.48003  0.61890  0.51642  1.0000
  C   C452      1.0  0.25460  0.95411  0.72434  1.0000
  H   H819      1.0  0.04160  0.70716  0.60356  1.0000
  C   C453      1.0  0.09028  0.96748  0.65875  1.0000
  C   C454      1.0  0.06978  0.92959  0.66257  1.0000
  C   C455      1.0  0.08010  0.90870  0.67290  1.0000
  C   C456      1.0  0.11083  0.92617  0.67959  1.0000
  C   C457      1.0  0.21027  0.61109  0.49857  1.0000
  H   H820      1.0  0.23710  0.61294  0.49907  1.0000
  H   H821      1.0  0.11895  0.91020  0.68760  1.0000
  C   C458      1.0  0.31892  0.65611  0.49835  1.0000
  H   H822      1.0  0.25179  0.93091  0.71689  1.0000
  H   H823      1.0  0.01494  0.78969  0.63316  1.0000
  C   C459      1.0  0.33103  0.52421  0.50619  1.0000
  H   H824      1.0  0.30066  0.64870  0.50940  1.0000
  C   C460      1.0  0.13087  0.96447  0.67611  1.0000
  H   H825      1.0  0.42619  0.70913  0.50591  1.0000
  H   H826      1.0  0.00700  0.81176  0.60478  1.0000
  C   C461      1.0  0.00492  0.96906  0.71757  1.0000
  S   S94       1.0  0.42156  0.51635  0.49129  1.0000
  H   H827      1.0  0.01462  0.71686  0.64798  1.0000
  H   H828      1.0  0.02605  0.75806  0.59609  1.0000
  Fe  Fe43      1.0  0.99933  0.84816  0.67329  1.0000
  H   H829      1.0  0.31173  0.51437  0.51645  1.0000
  C   C462      1.0  0.00616  0.82184  0.72094  1.0000
  H   H830      1.0  0.40474  0.61413  0.49666  1.0000
  H   H831      1.0  0.00761  0.86568  0.73651  1.0000
  C   C463      1.0  0.04010  0.97700  0.69080  1.0000
  H   H832      1.0  0.04507  0.85438  0.73563  1.0000
  C   C464      1.0  0.35381  0.65617  0.50171  1.0000
  H   H833      1.0  0.02788  0.89411  0.70841  1.0000
  S   S95       1.0  0.28814  0.55341  0.49484  1.0000
  C   C465      1.0  0.48398  0.76829  0.49606  1.0000
  H   H834      1.0  0.99900  0.68938  0.62696  1.0000
  H   H835      1.0  0.04093  0.75606  0.66874  1.0000
  H   H836      1.0  0.03201  0.77819  0.73317  1.0000
  H   H837      1.0  0.12613  0.94466  0.71878  1.0000
  C   C466      1.0  0.45478  0.64794  0.50382  1.0000
  H   H838      1.0  0.05732  0.72653  0.62102  1.0000
  H   H839      1.0  0.47325  0.65184  0.49316  1.0000
  H   H840      1.0  0.44426  0.58905  0.50710  1.0000
  H   H841      1.0  0.34831  0.62920  0.50835  1.0000
  H   H842      1.0  0.04702  0.78553  0.61066  1.0000
  C   C467      1.0  0.04559  0.89014  0.71630  1.0000
  C   C468      1.0  0.43145  0.70959  0.49294  1.0000
  H   H843      1.0  0.03364  0.79420  0.65987  1.0000
  H   H844      1.0  0.10377  0.78099  0.60514  1.0000
  H   H845      1.0  0.10518  0.73762  0.59991  1.0000
  S   S96       1.0  0.05436  0.86096  0.67754  1.0000
  H   H846      1.0  0.23639  0.96687  0.72142  1.0000
  H   H847      1.0  0.48186  0.76204  0.50891  1.0000
  C   C469      1.0  0.05375  0.73363  0.60896  1.0000
  H   H848      1.0  0.40387  0.64365  0.51164  1.0000
  H   H849      1.0  0.08756  0.76171  0.58736  1.0000
  H   H850      1.0  0.02648  0.81712  0.71311  1.0000
  H   H851      1.0  0.36374  0.49931  0.51494  1.0000
  H   H852      1.0  0.32227  0.68401  0.49346  1.0000
  H   H853      1.0  0.20270  0.62480  0.50847  1.0000
  H   H854      1.0  0.36560  0.67896  0.50922  1.0000
  C   C470      1.0  0.07213  0.52182  0.52467  1.0000
  H   H855      1.0  0.15888  0.57040  0.49804  1.0000
  N   N26       1.0  0.99703  0.74204  0.61946  1.0000
  H   H856      1.0  0.28150  0.97554  0.72162  1.0000
  C   C471      1.0  0.45352  0.61413  0.51369  1.0000
  C   C472      1.0  0.32602  0.54444  0.49364  1.0000
  H   H857      1.0  0.20556  0.89003  0.73745  1.0000
  C   C473      1.0  0.02572  0.85786  0.72869  1.0000
  C   C474      1.0  0.41806  0.64283  0.50014  1.0000
  H   H858      1.0  0.48687  0.71687  0.49061  1.0000
  H   H859      1.0  0.08215  0.98330  0.65067  1.0000
  H   H860      1.0  0.11972  0.51368  0.50417  1.0000
  H   H861      1.0  0.04831  0.95458  0.69436  1.0000
  H   H862      1.0  0.01315  0.94608  0.71988  1.0000
  H   H863      1.0  0.06649  0.88482  0.70926  1.0000
  C   C475      1.0  0.18491  0.57055  0.49910  1.0000
  H   H864      1.0  0.46868  0.78497  0.49370  1.0000
  H   H865      1.0  0.05182  0.75873  0.64016  1.0000
  H   H866      1.0  0.05800  0.91597  0.72203  1.0000
  C   C476      1.0  0.02392  0.76347  0.66147  1.0000
  C   C477      1.0  0.38548  0.52822  0.49209  1.0000
  C   C478      1.0  0.17140  0.51463  0.54610  1.0000
  C   C479      1.0  0.12067  0.98513  0.66559  1.0000
  C   C480      1.0  0.02436  0.74738  0.64560  1.0000
  C   C481      1.0  0.00213  0.75888  0.63498  1.0000
  H   H867      1.0  0.15431  0.97787  0.68142  1.0000
  H   H868      1.0  0.15475  0.53030  0.54801  1.0000
  H   H869      1.0  0.19794  0.49534  0.50247  1.0000
  H   H870      1.0  0.43602  0.60915  0.52486  1.0000
  H   H871      1.0  0.00865  0.73927  0.71534  1.0000
  H   H872      1.0  0.19886  0.53504  0.54385  1.0000
  C   C482      1.0  0.10736  0.52327  0.52828  1.0000
  H   H873      1.0  0.00209  0.76849  0.70040  1.0000
  H   H874      1.0  0.16475  0.49898  0.49226  1.0000
  H   H875      1.0  0.06059  0.53341  0.53417  1.0000
  H   H876      1.0  0.47304  0.50050  0.50640  1.0000
  H   H877      1.0  0.07524  0.53858  0.51349  1.0000
  H   H878      1.0  0.17471  0.50936  0.57101  1.0000
  N   N27       1.0  0.15949  0.50831  0.51682  1.0000
  C   C483      1.0  0.17322  0.99150  0.72136  1.0000
  C   C484      1.0  0.12254  0.50404  0.51605  1.0000
  H   H879      1.0  0.99720  0.75216  0.66786  1.0000
  N   N28       1.0  0.99786  0.98550  0.73246  1.0000
  H   H880      1.0  0.05382  0.49276  0.52376  1.0000
  Fe  Fe44      1.0  0.05389  0.56951  0.95143  1.0000
  S   S97       1.0  0.07718  0.54465  0.93295  1.0000
  C   C485      1.0  0.10787  0.50510  0.89472  1.0000
  Fe  Fe45      1.0  0.12439  0.62442  0.95738  1.0000
  S   S98       1.0  0.15398  0.60515  0.93909  1.0000
  S   S99       1.0  0.15048  0.66823  0.97312  1.0000
  Fe  Fe46      1.0  0.11245  0.60320  0.92438  1.0000
  S   S100      1.0  0.11746  0.61437  0.89821  1.0000
  Fe  Fe47      1.0  0.11655  0.54853  0.94916  1.0000
  H   H881      1.0  0.04170  0.96785  0.75418  1.0000
  S   S101      1.0  0.08647  0.62820  0.94168  1.0000
  S   S102      1.0  0.08982  0.56767  0.96865  1.0000
  Fe  Fe48      1.0  0.40871  0.84785  0.94098  1.0000
  S   S103      1.0  0.41670  0.86085  0.96582  1.0000
  Fe  Fe49      1.0  0.33010  0.81896  0.94805  1.0000
  S   S104      1.0  0.33106  0.82951  0.97339  1.0000
  S   S105      1.0  0.28321  0.79510  0.93537  1.0000
  Fe  Fe50      1.0  0.37565  0.88343  0.96493  1.0000
  S   S106      1.0  0.99651  0.55653  0.95550  1.0000
  Fe  Fe51      1.0  0.37191  0.80628  0.97241  1.0000
  C   C486      1.0  0.45188  0.83121  0.90844  1.0000
  S   S107      1.0  0.37118  0.87508  0.93948  1.0000
  S   S108      1.0  0.36722  0.79085  0.94776  1.0000
  S   S109      1.0  0.32669  0.58254  0.95849  1.0000
  Fe  Fe52      1.0  0.25172  0.75309  0.83645  1.0000
  S   S110      1.0  0.22326  0.71136  0.82022  1.0000
  S   S111      1.0  0.24337  0.75265  0.86282  1.0000
  Fe  Fe53      1.0  0.30273  0.80562  0.80953  1.0000
  S   S112      1.0  0.27803  0.76931  0.79112  1.0000
  S   S113      1.0  0.35163  0.85739  0.80454  1.0000
  Fe  Fe54      1.0  0.22757  0.76183  0.80522  1.0000
  S   S114      1.0  0.18296  0.76252  0.79292  1.0000
  Fe  Fe55      1.0  0.27629  0.72278  0.80754  1.0000
  S   S115      1.0  0.30306  0.68638  0.79908  1.0000
  S   S116      1.0  0.25273  0.80259  0.82236  1.0000
  S   S117      1.0  0.30407  0.75975  0.82516  1.0000
  Fe  Fe56      1.0  0.06267  0.94573  0.80350  1.0000
  S   S118      1.0  0.03481  0.92487  0.78281  1.0000
  H   H882      1.0  0.06088  0.72294  0.98453  1.0000
  C   C487      1.0  0.15811  0.61064  0.83457  1.0000
  C   C488      1.0  0.37393  0.65671  0.82888  1.0000
  C   C489      1.0  0.37191  0.62555  0.84061  1.0000
  H   H883      1.0  0.47394  0.88819  0.84226  1.0000
  H   H884      1.0  0.01759  0.63479  0.96330  1.0000
  H   H885      1.0  0.34935  0.64839  0.82366  1.0000
  S   S119      1.0  0.03434  0.89227  0.81865  1.0000
  H   H886      1.0  0.37700  0.53588  0.87850  1.0000
  C   C490      1.0  0.42481  0.57849  0.80809  1.0000
  C   C491      1.0  0.43237  0.61617  0.80453  1.0000
  C   C492      1.0  0.45922  0.64360  0.81096  1.0000
  H   H887      1.0  0.41762  0.62416  0.79662  1.0000
  H   H888      1.0  0.23488  0.94109  0.77299  1.0000
  S   S120      1.0  0.10843  0.93292  0.79503  1.0000
  C   C493      1.0  0.21907  0.83960  0.75693  1.0000
  H   H889      1.0  0.24332  0.80018  0.75413  1.0000
  H   H890      1.0  0.43261  0.94620  0.94684  1.0000
  H   H891      1.0  0.13333  0.52291  0.89814  1.0000
  H   H892      1.0  0.16005  0.83282  0.74604  1.0000
  C   C494      1.0  0.40614  0.79567  0.79244  1.0000
  C   C495      1.0  0.37938  0.80829  0.79487  1.0000
  C   C496      1.0  0.38590  0.84304  0.80045  1.0000
  C   C497      1.0  0.41927  0.86498  0.80382  1.0000
  H   H893      1.0  0.48199  0.66391  0.97868  1.0000
  H   H894      1.0  0.40093  0.76890  0.78795  1.0000
  H   H895      1.0  0.35369  0.79101  0.79234  1.0000
  H   H896      1.0  0.42429  0.89169  0.80829  1.0000
  H   H897      1.0  0.42640  0.77316  0.96803  1.0000
  C   C498      1.0  0.28112  0.63822  0.80255  1.0000
  C   C499      1.0  0.30056  0.61642  0.80260  1.0000
  C   C500      1.0  0.28421  0.57835  0.80714  1.0000
  H   H898      1.0  0.10896  0.55000  0.87891  1.0000
  C   C501      1.0  0.24495  0.62146  0.80583  1.0000
  H   H899      1.0  0.32846  0.62914  0.79946  1.0000
  H   H900      1.0  0.41111  0.66568  0.85239  1.0000
  H   H901      1.0  0.39949  0.74406  0.90104  1.0000
  C   C502      1.0  0.16226  0.78998  0.80098  1.0000
  C   C503      1.0  0.12883  0.78451  0.79772  1.0000
  C   C504      1.0  0.11174  0.80561  0.80459  1.0000
  S   S121      1.0  0.31661  0.51908  0.83300  1.0000
  S   S122      1.0  0.31390  0.55050  0.91887  1.0000
  C   C505      1.0  0.48802  0.67508  0.87927  1.0000
  H   H902      1.0  0.11599  0.76357  0.79008  1.0000
  H   H903      1.0  0.08573  0.80095  0.80227  1.0000
  H   H904      1.0  0.41507  0.57681  0.84632  1.0000
  H   H905      1.0  0.20520  0.89599  0.79617  1.0000
  H   H906      1.0  0.40752  0.78780  0.92154  1.0000
  H   H907      1.0  0.36916  0.60115  0.83393  1.0000
  C   C506      1.0  0.41325  0.74424  0.97240  1.0000
  C   C507      1.0  0.42508  0.71798  0.96645  1.0000
  H   H908      1.0  0.09107  0.83305  0.76135  1.0000
  H   H909      1.0  0.44730  0.72669  0.95748  1.0000
  C   C508      1.0  0.24744  0.94030  0.74173  1.0000
  N   N29       1.0  0.40299  0.61112  0.86292  1.0000
  C   C509      1.0  0.15096  0.65467  0.88884  1.0000
  C   C510      1.0  0.17282  0.68205  0.89724  1.0000
  C   C511      1.0  0.20038  0.71299  0.88913  1.0000
  C   C512      1.0  0.20679  0.71587  0.87272  1.0000
  C   C513      1.0  0.18405  0.68928  0.86441  1.0000
  C   C514      1.0  0.15607  0.65888  0.87244  1.0000
  H   H910      1.0  0.16856  0.67933  0.90992  1.0000
  H   H911      1.0  0.21690  0.73461  0.89556  1.0000
  H   H912      1.0  0.18806  0.69218  0.85177  1.0000
  H   H913      1.0  0.13853  0.63816  0.86599  1.0000
  H   H914      1.0  0.29960  0.56196  0.80758  1.0000
  H   H915      1.0  0.34840  0.59018  0.87138  1.0000
  C   C515      1.0  0.45724  0.66656  0.86995  1.0000
  H   H916      1.0  0.44756  0.60325  0.98292  1.0000
  H   H917      1.0  0.47905  0.66190  0.89146  1.0000
  C   C516      1.0  0.13436  0.94968  0.74305  1.0000
  C   C517      1.0  0.18699  0.70402  0.96271  1.0000
  C   C518      1.0  0.19063  0.70856  0.94634  1.0000
  C   C519      1.0  0.21983  0.73731  0.93809  1.0000
  C   C520      1.0  0.24594  0.76091  0.94612  1.0000
  C   C521      1.0  0.24215  0.75656  0.96251  1.0000
  C   C522      1.0  0.21253  0.72831  0.97080  1.0000
  H   H918      1.0  0.17072  0.69023  0.94006  1.0000
  H   H919      1.0  0.22227  0.74111  0.92545  1.0000
  H   H920      1.0  0.26203  0.77483  0.96879  1.0000
  C   C523      1.0  0.47559  0.84085  0.89468  1.0000
  C   C524      1.0  0.10787  0.81910  0.75661  1.0000
  S   S123      1.0  0.43498  0.75034  0.87060  1.0000
  N   N30       1.0  0.31172  0.67952  0.93602  1.0000
  C   C525      1.0  0.29554  0.70313  0.92853  1.0000
  C   C526      1.0  0.31197  0.68385  0.95347  1.0000
  C   C527      1.0  0.34896  0.69310  0.92845  1.0000
  C   C528      1.0  0.29349  0.63923  0.93327  1.0000
  C   C529      1.0  0.25394  0.62093  0.93854  1.0000
  C   C530      1.0  0.29637  0.70327  0.91042  1.0000
  C   C531      1.0  0.37061  0.67233  0.93431  1.0000
  C   C532      1.0  0.28303  0.69409  0.96200  1.0000
  C   C533      1.0  0.07266  0.71032  0.97558  1.0000
  C   C534      1.0  0.23987  0.57964  0.93604  1.0000
  C   C535      1.0  0.27254  0.72024  0.90458  1.0000
  C   C536      1.0  0.40873  0.69171  0.92724  1.0000
  H   H921      1.0  0.30883  0.73254  0.93119  1.0000
  H   H922      1.0  0.26802  0.69467  0.93361  1.0000
  H   H923      1.0  0.31141  0.65831  0.95984  1.0000
  H   H924      1.0  0.33676  0.70615  0.95586  1.0000
  H   H925      1.0  0.36279  0.72319  0.92992  1.0000
  H   H926      1.0  0.35039  0.69060  0.91566  1.0000
  H   H927      1.0  0.29828  0.63468  0.92078  1.0000
  H   H928      1.0  0.30466  0.62236  0.93948  1.0000
  H   H929      1.0  0.24001  0.63392  0.93174  1.0000
  H   H930      1.0  0.24793  0.62281  0.95123  1.0000
  H   H931      1.0  0.32300  0.72006  0.90449  1.0000
  H   H932      1.0  0.28760  0.67486  0.90658  1.0000
  H   H933      1.0  0.36102  0.64361  0.93066  1.0000
  H   H934      1.0  0.36920  0.67085  0.94724  1.0000
  H   H935      1.0  0.28860  0.72356  0.95853  1.0000
  H   H936      1.0  0.25685  0.67690  0.95914  1.0000
  H   H937      1.0  0.30213  0.90201  0.84561  1.0000
  C   C537      1.0  0.19240  0.91277  0.79104  1.0000
  H   H938      1.0  0.10775  0.79816  0.76568  1.0000
  H   H939      1.0  0.21105  0.56778  0.93791  1.0000
  H   H940      1.0  0.24877  0.57523  0.92399  1.0000
  H   H941      1.0  0.24908  0.56457  0.94450  1.0000
  H   H942      1.0  0.27973  0.74894  0.90805  1.0000
  H   H943      1.0  0.27455  0.72115  0.89158  1.0000
  H   H944      1.0  0.24526  0.70298  0.90956  1.0000
  H   H945      1.0  0.33185  0.61771  0.90146  1.0000
  C   C538      1.0  0.22515  0.52427  0.98021  1.0000
  C   C539      1.0  0.37876  0.66912  0.98328  1.0000
  N   N31       1.0  0.23355  0.60398  0.85665  1.0000
  H   H946      1.0  0.13952  0.88508  0.85580  1.0000
  C   C540      1.0  0.28172  0.68986  0.97979  1.0000
  C   C541      1.0  0.27110  0.62267  0.84942  1.0000
  C   C542      1.0  0.23136  0.61359  0.87338  1.0000
  C   C543      1.0  0.19637  0.59196  0.88374  1.0000
  C   C544      1.0  0.24118  0.54321  0.86481  1.0000
  C   C545      1.0  0.28719  0.66600  0.84820  1.0000
  C   C546      1.0  0.19856  0.60192  0.90066  1.0000
  C   C547      1.0  0.44560  0.95902  0.97988  1.0000
  C   C548      1.0  0.31106  0.68187  0.86066  1.0000
  H   H947      1.0  0.46785  0.85219  0.98733  1.0000
  C   C549      1.0  0.37363  0.60637  0.87554  1.0000
  C   C550      1.0  0.20412  0.54435  0.98229  1.0000
  H   H948      1.0  0.27399  0.61422  0.83730  1.0000
  H   H949      1.0  0.28803  0.61296  0.85575  1.0000
  H   H950      1.0  0.25204  0.60954  0.87929  1.0000
  H   H951      1.0  0.23657  0.64360  0.87378  1.0000
  H   H952      1.0  0.18886  0.56163  0.88400  1.0000
  C   C551      1.0  0.39634  0.57366  0.85689  1.0000
  H   H953      1.0  0.26903  0.55317  0.86002  1.0000
  H   H954      1.0  0.20970  0.72488  0.98347  1.0000
  H   H955      1.0  0.26756  0.67827  0.84878  1.0000
  H   H956      1.0  0.30310  0.67631  0.83653  1.0000
  C   C552      1.0  0.47169  0.81557  0.88317  1.0000
  H   H957      1.0  0.21849  0.59460  0.90564  1.0000
  H   H958      1.0  0.20518  0.63201  0.90137  1.0000
  C   C553      1.0  0.44199  0.97298  0.93954  1.0000
  H   H959      1.0  0.32055  0.71247  0.85952  1.0000
  H   H960      1.0  0.29723  0.67199  0.87267  1.0000
  H   H961      1.0  0.33386  0.67436  0.85899  1.0000
  N   N32       1.0  0.36883  0.83397  0.85844  1.0000
  C   C554      1.0  0.37031  0.79742  0.85446  1.0000
  C   C555      1.0  0.35473  0.83219  0.87552  1.0000
  C   C556      1.0  0.34356  0.84055  0.84873  1.0000
  C   C557      1.0  0.40365  0.86591  0.85440  1.0000
  C   C558      1.0  0.43388  0.86275  0.86224  1.0000
  C   C559      1.0  0.38817  0.79690  0.83782  1.0000
  C   C560      1.0  0.33680  0.87612  0.85155  1.0000
  C   C561      1.0  0.36328  0.80765  0.88748  1.0000
  C   C562      1.0  0.35322  0.81438  0.90427  1.0000
  C   C563      1.0  0.16113  0.86906  0.76539  1.0000
  C   C564      1.0  0.38604  0.75812  0.83479  1.0000
  C   C565      1.0  0.30647  0.87644  0.84336  1.0000
  H   H962      1.0  0.34353  0.77543  0.85596  1.0000
  H   H963      1.0  0.38456  0.78794  0.86256  1.0000
  H   H964      1.0  0.36340  0.86061  0.87958  1.0000
  H   H965      1.0  0.32572  0.82100  0.87707  1.0000
  H   H966      1.0  0.31801  0.81625  0.85070  1.0000
  H   H967      1.0  0.35266  0.84281  0.83606  1.0000
  H   H968      1.0  0.41116  0.87039  0.84144  1.0000
  H   H969      1.0  0.40217  0.89227  0.85784  1.0000
  H   H970      1.0  0.43525  0.83541  0.86107  1.0000
  H   H971      1.0  0.43066  0.86711  0.87488  1.0000
  H   H972      1.0  0.37586  0.80553  0.82865  1.0000
  H   H973      1.0  0.41611  0.81569  0.83637  1.0000
  H   H974      1.0  0.36005  0.90123  0.84675  1.0000
  H   H975      1.0  0.33038  0.87844  0.86417  1.0000
  H   H976      1.0  0.34839  0.77787  0.88595  1.0000
  H   H977      1.0  0.39120  0.81327  0.88599  1.0000
  H   H978      1.0  0.32639  0.81327  0.90581  1.0000
  H   H979      1.0  0.35432  0.79270  0.91259  1.0000
  H   H980      1.0  0.37142  0.84193  0.90714  1.0000
  H   H981      1.0  0.46477  0.67258  0.80813  1.0000
  H   H982      1.0  0.30659  0.70884  0.98341  1.0000
  H   H983      1.0  0.39723  0.74740  0.84394  1.0000
  C   C566      1.0  0.00977  0.77866  0.74122  1.0000
  H   H984      1.0  0.44162  0.55285  0.96734  1.0000
  H   H985      1.0  0.09351  0.85624  0.85937  1.0000
  S   S124      1.0  0.22833  0.51538  0.81895  1.0000
  N   N33       1.0  0.13965  0.78009  0.86715  1.0000
  C   C567      1.0  0.16908  0.79318  0.87701  1.0000
  C   C568      1.0  0.10749  0.75349  0.87740  1.0000
  C   C569      1.0  0.14987  0.76164  0.85364  1.0000
  C   C570      1.0  0.13224  0.81199  0.86062  1.0000
  C   C571      1.0  0.12537  0.83715  0.87283  1.0000
  C   C572      1.0  0.20356  0.82418  0.86908  1.0000
  C   C573      1.0  0.12133  0.74253  0.84311  1.0000
  C   C574      1.0  0.10804  0.71561  0.88284  1.0000
  H   H986      1.0  0.18822  0.93729  0.81287  1.0000
  C   C575      1.0  0.23074  0.83541  0.88046  1.0000
  C   C576      1.0  0.13230  0.71828  0.83216  1.0000
  H   H987      1.0  0.17583  0.76969  0.88069  1.0000
  H   H988      1.0  0.16100  0.80270  0.88817  1.0000
  H   H989      1.0  0.10292  0.76617  0.88828  1.0000
  H   H990      1.0  0.08388  0.74806  0.87153  1.0000
  H   H991      1.0  0.15970  0.74111  0.85793  1.0000
  H   H992      1.0  0.17213  0.78218  0.84562  1.0000
  H   H993      1.0  0.15383  0.82988  0.85162  1.0000
  H   H994      1.0  0.10910  0.80151  0.85420  1.0000
  H   H995      1.0  0.14822  0.85047  0.87909  1.0000
  H   H996      1.0  0.46931  0.92051  0.85590  1.0000
  H   H997      1.0  0.21454  0.81450  0.85874  1.0000
  H   H998      1.0  0.19978  0.84942  0.86522  1.0000
  H   H999      1.0  0.11696  0.76381  0.83580  1.0000
  H   H1000     1.0  0.09621  0.72441  0.84995  1.0000
  H   H1001     1.0  0.11079  0.69991  0.87273  1.0000
  H   H1002     1.0  0.12976  0.71967  0.88976  1.0000
  H   H1003     1.0  0.08287  0.67152  0.99044  1.0000
  C   C577      1.0  0.20965  0.91120  0.74601  1.0000
  H   H1004     1.0  0.22138  0.84598  0.89099  1.0000
  H   H1005     1.0  0.23663  0.81134  0.88420  1.0000
  H   H1006     1.0  0.25515  0.85770  0.87463  1.0000
  H   H1007     1.0  0.11375  0.70840  0.82344  1.0000
  H   H1008     1.0  0.15860  0.73426  0.82575  1.0000
  H   H1009     1.0  0.13260  0.69380  0.83895  1.0000
  C   C578      1.0  0.47897  0.63346  0.82084  1.0000
  C   C579      1.0  0.15611  0.97007  0.75352  1.0000
  C   C580      1.0  0.17685  0.53846  0.97321  1.0000
  H   H1010     1.0  0.02178  0.80087  0.74901  1.0000
  H   H1011     1.0  0.46015  0.95114  0.91947  1.0000
  H   H1012     1.0  0.16087  0.55421  0.97480  1.0000
  H   H1013     1.0  0.40099  0.95356  0.92442  1.0000
  Fe  Fe57      1.0  0.37952  0.59117  0.96387  1.0000
  H   H1014     1.0  0.07094  0.70493  0.90396  1.0000
  C   C581      1.0  0.24686  0.82541  0.76033  1.0000
  H   H1015     1.0  0.49115  0.87710  0.95820  1.0000
  C   C582      1.0  0.20648  0.92457  0.77342  1.0000
  C   C583      1.0  0.39434  0.50857  0.86041  1.0000
  C   C584      1.0  0.44381  0.78088  0.88538  1.0000
  C   C585      1.0  0.42525  0.79580  0.91089  1.0000
  C   C586      1.0  0.21237  0.61874  0.84722  1.0000
  S   S125      1.0  0.42200  0.64783  0.96364  1.0000
  C   C587      1.0  0.40765  0.68036  0.97177  1.0000
  C   C588      1.0  0.07447  0.69124  0.89326  1.0000
  C   C589      1.0  0.42103  0.77083  0.89935  1.0000
  C   C590      1.0  0.44476  0.56835  0.81788  1.0000
  H   H1016     1.0  0.40081  0.75912  0.82321  1.0000
  H   H1017     1.0  0.39562  0.66263  0.81930  1.0000
  H   H1018     1.0  0.49056  0.95382  0.95562  1.0000
  H   H1019     1.0  0.37773  0.66459  0.87243  1.0000
  H   H1020     1.0  0.10261  0.82098  0.88159  1.0000
  C   C591      1.0  0.17871  0.81710  0.81081  1.0000
  H   H1021     1.0  0.37760  0.68229  0.83478  1.0000
  C   C592      1.0  0.16144  0.83741  0.81798  1.0000
  H   H1022     1.0  0.31212  0.87602  0.83050  1.0000
  H   H1023     1.0  0.41129  0.69272  0.91424  1.0000
  H   H1024     1.0  0.23927  0.54804  0.87741  1.0000
  Fe  Fe58      1.0  0.47503  0.76482  0.84935  1.0000
  H   H1025     1.0  0.17473  0.56721  0.83935  1.0000
  H   H1026     1.0  0.15532  0.84864  0.77572  1.0000
  H   H1027     1.0  0.28234  0.85202  0.84788  1.0000
  C   C593      1.0  0.44590  0.85190  0.80176  1.0000
  C   C594      1.0  0.12794  0.83162  0.81495  1.0000
  H   H1028     1.0  0.20499  0.82311  0.81265  1.0000
  H   H1029     1.0  0.26059  0.69710  0.98547  1.0000
  H   H1030     1.0  0.14928  0.96232  0.76593  1.0000
  H   H1031     1.0  0.19216  0.92523  0.74339  1.0000
  Fe  Fe59      1.0  0.07834  0.87793  0.80870  1.0000
  H   H1032     1.0  0.01031  0.70908  0.76765  1.0000
  H   H1033     1.0  0.48993  0.88985  0.86094  1.0000
  H   H1034     1.0  0.14569  0.88594  0.76836  1.0000
  S   S126      1.0  0.09637  0.91102  0.74992  1.0000
  H   H1035     1.0  0.12387  0.72434  0.96252  1.0000
  H   H1036     1.0  0.36502  0.64006  0.98734  1.0000
  H   H1037     1.0  0.14202  0.49503  0.91918  1.0000
  H   H1038     1.0  0.13090  0.59139  0.83384  1.0000
  H   H1039     1.0  0.27650  0.66079  0.98392  1.0000
  H   H1040     1.0  0.45231  0.54601  0.93912  1.0000
  H   H1041     1.0  0.17447  0.85844  0.82554  1.0000
  S   S127      1.0  0.10690  0.85686  0.82449  1.0000
  C   C595      1.0  0.16987  0.51158  0.96240  1.0000
  S   S128      1.0  0.37687  0.93569  0.97538  1.0000
  C   C596      1.0  0.19960  0.94662  0.80044  1.0000
  H   H1042     1.0  0.43387  0.61082  0.88147  1.0000
  S   S129      1.0  0.05246  0.85064  0.78843  1.0000
  C   C597      1.0  0.22103  0.87229  0.76675  1.0000
  S   S130      1.0  0.45491  0.86411  0.92213  1.0000
  S   S131      1.0  0.47285  0.80170  0.79230  1.0000
  C   C598      1.0  0.47190  0.59581  0.82419  1.0000
  H   H1043     1.0  0.48953  0.82333  0.87241  1.0000
  H   H1044     1.0  0.17306  0.58612  0.90780  1.0000
  S   S132      1.0  0.39421  0.54488  0.79834  1.0000
  H   H1045     1.0  0.22986  0.63816  0.80524  1.0000
  C   C599      1.0  0.40482  0.63704  0.84911  1.0000
  H   H1046     1.0  0.07613  0.65789  0.97128  1.0000
  H   H1047     1.0  0.17247  0.61763  0.82253  1.0000
  H   H1048     1.0  0.45596  0.61539  0.86217  1.0000
  S   S133      1.0  0.13514  0.50249  0.95129  1.0000
  H   H1049     1.0  0.24480  0.81798  0.77309  1.0000
  Fe  Fe60      1.0  0.30710  0.53462  0.97662  1.0000
  H   H1050     1.0  0.39113  0.65265  0.89031  1.0000
  H   H1051     1.0  0.44054  0.67966  0.87534  1.0000
  Fe  Fe61      1.0  0.07815  0.90718  0.77561  1.0000
  H   H1052     1.0  0.35876  0.73865  0.83456  1.0000
  C   C600      1.0  0.31129  0.51854  0.90491  1.0000
  S   S134      1.0  0.36004  0.54718  0.98392  1.0000
  H   H1053     1.0  0.46756  0.67993  0.85786  1.0000
  H   H1054     1.0  0.18758  0.96484  0.79578  1.0000
  H   H1055     1.0  0.20048  0.57004  0.81271  1.0000
  H   H1056     1.0  0.42692  0.63987  0.84024  1.0000
  C   C601      1.0  0.43739  0.62419  0.86940  1.0000
  H   H1057     1.0  0.03507  0.75830  0.76721  1.0000
  H   H1058     1.0  0.21294  0.85975  0.77908  1.0000
  H   H1059     1.0  0.07962  0.50475  0.87483  1.0000
  C   C602      1.0  0.37222  0.64227  0.88178  1.0000
  H   H1060     1.0  0.19541  0.94425  0.76940  1.0000
  H   H1061     1.0  0.47157  0.86873  0.80442  1.0000
  H   H1062     1.0  0.24879  0.89136  0.76637  1.0000
  C   C603      1.0  0.46885  0.89225  0.85484  1.0000
  C   C604      1.0  0.22844  0.58310  0.81006  1.0000
  H   H1063     1.0  0.34813  0.61865  0.84900  1.0000
  H   H1064     1.0  0.42329  0.55299  0.87338  1.0000
  H   H1065     1.0  0.31565  0.62091  0.88306  1.0000
  C   C605      1.0  0.22234  0.56276  0.85562  1.0000
  C   C606      1.0  0.24821  0.56179  0.81118  1.0000
  H   H1066     1.0  0.15783  0.63642  0.83922  1.0000
  H   H1067     1.0  0.43970  0.53934  0.82029  1.0000
  C   C607      1.0  0.38495  0.73318  0.98421  1.0000
  H   H1068     1.0  0.07571  0.66442  0.89696  1.0000
  N   N34       1.0  0.19958  0.89360  0.76268  1.0000
  H   H1069     1.0  0.17366  0.49252  0.89271  1.0000
  H   H1070     1.0  0.33518  0.66184  0.89304  1.0000
  H   H1071     1.0  0.21044  0.64350  0.85220  1.0000
  H   H1072     1.0  0.04202  0.73298  0.75095  1.0000
  C   C608      1.0  0.43931  0.81724  0.79601  1.0000
  Fe  Fe62      1.0  0.33190  0.54208  0.94195  1.0000
  H   H1073     1.0  0.11415  0.88653  0.87378  1.0000
  H   H1074     1.0  0.37016  0.56148  0.85301  1.0000
  H   H1075     1.0  0.12605  0.51917  0.86971  1.0000
  H   H1076     1.0  0.22555  0.55718  0.84318  1.0000
  H   H1077     1.0  0.22588  0.62914  0.83515  1.0000
  C   C609      1.0  0.17485  0.59202  0.84511  1.0000
  H   H1078     1.0  0.42017  0.72039  0.93087  1.0000
  C   C610      1.0  0.33641  0.63503  0.89036  1.0000
  H   H1079     1.0  0.19424  0.54772  0.85975  1.0000
  H   H1080     1.0  0.22801  0.96275  0.80000  1.0000
  H   H1081     1.0  0.06190  0.71137  0.96443  1.0000
  C   C611      1.0  0.11773  0.86810  0.86492  1.0000
  Fe  Fe63      1.0  0.36406  0.50939  0.96556  1.0000
  H   H1082     1.0  0.17563  0.59878  0.87939  1.0000
  H   H1083     1.0  0.16392  0.89647  0.79281  1.0000
  H   H1084     1.0  0.15825  0.58280  0.85654  1.0000
  S   S135      1.0  0.45710  0.72976  0.82952  1.0000
  H   H1085     1.0  0.05173  0.68532  0.88676  1.0000
  H   H1086     1.0  0.37426  0.58905  0.88596  1.0000
  H   H1087     1.0  0.42366  0.67613  0.93140  1.0000
  C   C612      1.0  0.30293  0.52547  0.89012  1.0000
  C   C613      1.0  0.39816  0.54356  0.86857  1.0000
  H   H1088     1.0  0.29734  0.54959  0.88773  1.0000
  C   C614      1.0  0.46741  0.57057  0.96083  1.0000
  C   C615      1.0  0.21870  0.49819  0.96907  1.0000
  H   H1089     1.0  0.00749  0.50463  0.97724  1.0000
  H   H1090     1.0  0.19344  0.81614  0.76019  1.0000
  H   H1091     1.0  0.44391  0.93224  0.97665  1.0000
  S   S136      1.0  0.38686  0.55465  0.94581  1.0000
  H   H1092     1.0  0.14333  0.86731  0.74221  1.0000
  N   N35       1.0  0.02859  0.64444  0.98710  1.0000
  C   C616      1.0  0.41635  0.96756  0.98045  1.0000
  Fe  Fe64      1.0  0.48772  0.78231  0.81419  1.0000
  H   H1093     1.0  0.09690  0.80463  0.74637  1.0000
  Fe  Fe65      1.0  0.01095  0.86995  0.79702  1.0000
  H   H1094     1.0  0.22310  0.84748  0.74417  1.0000
  Fe  Fe66      1.0  0.26930  0.49294  0.82080  1.0000
  C   C617      1.0  0.10549  0.52056  0.87852  1.0000
  H   H1095     1.0  0.00880  0.67225  0.97075  1.0000
  H   H1096     1.0  0.25202  0.96501  0.74842  1.0000
  H   H1097     1.0  0.03413  0.59531  0.97926  1.0000
  H   H1098     1.0  0.27326  0.84683  0.75627  1.0000
  C   C618      1.0  0.20686  0.49968  0.91050  1.0000
  C   C619      1.0  0.47322  0.55050  0.94662  1.0000
  S   S137      1.0  0.30914  0.49291  0.95986  1.0000
  H   H1099     1.0  0.37070  0.49900  0.85440  1.0000
  H   H1100     1.0  0.47256  0.52289  0.95048  1.0000
  C   C620      1.0  0.36794  0.69566  0.98976  1.0000
  H   H1101     1.0  0.08719  0.50766  0.90306  1.0000
  C   C621      1.0  0.22498  0.50121  0.86359  1.0000
  C   C622      1.0  0.30203  0.50149  0.87840  1.0000
  H   H1102     1.0  0.38967  0.97136  0.94217  1.0000
  H   H1103     1.0  0.41731  0.51408  0.85157  1.0000
  H   H1104     1.0  0.46631  0.59686  0.95650  1.0000
  C   C623      1.0  0.41092  0.97538  0.93259  1.0000
  C   C624      1.0  0.06587  0.66970  0.98117  1.0000
  C   C625      1.0  0.11156  0.73449  0.97229  1.0000
  H   H1105     1.0  0.11567  0.76357  0.96884  1.0000
  H   H1106     1.0  0.23229  0.49472  0.85165  1.0000
  Fe  Fe67      1.0  0.34404  0.50471  0.81210  1.0000
  C   C626      1.0  0.02220  0.73536  0.75990  1.0000
  H   H1107     1.0  0.02451  0.95793  0.84260  1.0000
  H   H1108     1.0  0.48720  0.58781  0.83175  1.0000
  H   H1109     1.0  0.12457  0.73424  0.98286  1.0000
  C   C627      1.0  0.14481  0.84761  0.75146  1.0000
  C   C628      1.0  0.99746  0.94668  0.84867  1.0000
  H   H1110     1.0  0.00160  0.91981  0.74513  1.0000
  H   H1111     1.0  0.26645  0.92830  0.74410  1.0000
  H   H1112     1.0  0.20615  0.52669  0.91327  1.0000
  H   H1113     1.0  0.29645  0.50745  0.86690  1.0000
  C   C629      1.0  0.05332  0.98539  0.74301  1.0000
  C   C630      1.0  0.00709  0.64395  0.97404  1.0000
  H   H1114     1.0  0.47309  0.92166  0.94188  1.0000
  C   C631      1.0  0.47119  0.97566  0.92636  1.0000
  H   H1115     1.0  0.49323  0.54800  0.97537  1.0000
  H   H1116     1.0  0.23029  0.50493  0.90202  1.0000
  C   C632      1.0  0.02750  0.60597  0.99038  1.0000
  C   C633      1.0  0.47725  0.98541  0.98332  1.0000
  H   H1117     1.0  0.99789  0.93808  0.86106  1.0000
  H   H1118     1.0  0.84698  0.27821  0.06102  1.0000
  H   H1119     1.0  0.92310  0.00686  0.13528  1.0000
  H   H1120     1.0  0.64645  0.44748  0.02198  1.0000
  S   S138      1.0  0.51084  0.13632  0.17096  1.0000
  H   H1121     1.0  0.70921  0.05685  0.18133  1.0000
  C   C634      1.0  0.58583  0.10001  0.08991  1.0000
  C   C635      1.0  0.64048  0.08272  0.04591  1.0000
  C   C636      1.0  0.52697  0.35399  0.11260  1.0000
  H   H1122     1.0  0.64736  0.37499  0.02006  1.0000
  H   H1123     1.0  0.61330  0.38787  0.01499  1.0000
  Fe  Fe68      1.0  0.65920  0.40331  0.13449  1.0000
  S   S139      1.0  0.63274  0.42972  0.15101  1.0000
  Fe  Fe69      1.0  0.71078  0.40303  0.15625  1.0000
  S   S140      1.0  0.68875  0.42954  0.17449  1.0000
  S   S141      1.0  0.75591  0.39098  0.16270  1.0000
  Fe  Fe70      1.0  0.63688  0.39021  0.16936  1.0000
  S   S142      1.0  0.59743  0.36164  0.19031  1.0000
  S   S143      1.0  0.65896  0.36062  0.15262  1.0000
  Fe  Fe71      1.0  0.75151  0.20245  0.10384  1.0000
  S   S144      1.0  0.77171  0.18228  0.12367  1.0000
  S   S145      1.0  0.78316  0.23109  0.08104  1.0000
  Fe  Fe72      1.0  0.67766  0.17008  0.11973  1.0000
  S   S146      1.0  0.69051  0.14607  0.14116  1.0000
  S   S147      1.0  0.62696  0.16923  0.11375  1.0000
  Fe  Fe73      1.0  0.73626  0.20086  0.13909  1.0000
  S   S148      1.0  0.75474  0.22966  0.16049  1.0000
  Fe  Fe74      1.0  0.72462  0.12925  0.12410  1.0000
  S   S149      1.0  0.73049  0.07472  0.12398  1.0000
  S   S150      1.0  0.72062  0.22629  0.11909  1.0000
  S   S151      1.0  0.70731  0.14800  0.10288  1.0000
  H   H1124     1.0  0.53572  0.33093  0.11415  1.0000
  C   C637      1.0  0.59902  0.42189  0.07914  1.0000
  H   H1125     1.0  0.60399  0.15497  0.06660  1.0000
  C   C638      1.0  0.86122  0.30668  0.03008  1.0000
  H   H1126     1.0  0.86772  0.26131  0.14209  1.0000
  C   C639      1.0  0.58675  0.08254  0.06228  1.0000
  C   C640      1.0  0.93982  0.03406  0.18614  1.0000
  S   S152      1.0  0.53054  0.18151  0.03158  1.0000
  C   C641      1.0  0.55179  0.37940  0.13725  1.0000
  C   C642      1.0  0.72972  0.46798  0.06314  1.0000
  H   H1127     1.0  0.53048  0.01928  0.08114  1.0000
  H   H1128     1.0  0.60361  0.04268  0.11673  1.0000
  H   H1129     1.0  0.55040  0.31604  0.09069  1.0000
  S   S153      1.0  0.57708  0.42127  0.03797  1.0000
  H   H1130     1.0  0.85917  0.32064  0.07056  1.0000
  H   H1131     1.0  0.95550  0.00177  0.20210  1.0000
  C   C643      1.0  0.51176  0.41338  0.09636  1.0000
  H   H1132     1.0  0.74981  0.45814  0.06648  1.0000
  C   C644      1.0  0.62676  0.10255  0.05811  1.0000
  H   H1133     1.0  0.90398  0.30576  0.08265  1.0000
  C   C645      1.0  0.77917  0.27304  0.07685  1.0000
  C   C646      1.0  0.77436  0.28235  0.06169  1.0000
  C   C647      1.0  0.77109  0.31582  0.05817  1.0000
  C   C648      1.0  0.77444  0.34097  0.06955  1.0000
  C   C649      1.0  0.77944  0.33172  0.08472  1.0000
  C   C650      1.0  0.78132  0.29754  0.08843  1.0000
  H   H1134     1.0  0.77211  0.26316  0.05277  1.0000
  H   H1135     1.0  0.76511  0.32158  0.04678  1.0000
  H   H1136     1.0  0.78214  0.35107  0.09358  1.0000
  H   H1137     1.0  0.78531  0.29054  0.10015  1.0000
  C   C651      1.0  0.73010  0.05345  0.14234  1.0000
  C   C652      1.0  0.71657  0.06350  0.15607  1.0000
  H   H1138     1.0  0.73072  0.48871  0.09232  1.0000
  H   H1139     1.0  0.66906  0.09786  0.04301  1.0000
  C   C653      1.0  0.74955  0.01411  0.15795  1.0000
  C   C654      1.0  0.74561  0.02784  0.14328  1.0000
  H   H1140     1.0  0.70420  0.08284  0.15541  1.0000
  C   C655      1.0  0.91931  0.35952  0.02637  1.0000
  H   H1141     1.0  0.86354  0.01867  0.22897  1.0000
  H   H1142     1.0  0.75576  0.01971  0.13266  1.0000
  C   C656      1.0  0.86831  0.09930  0.18144  1.0000
  Fe  Fe75      1.0  0.83690  0.42487  0.01081  1.0000
  C   C657      1.0  0.75361  0.34535  0.16219  1.0000
  C   C658      1.0  0.77721  0.33587  0.16974  1.0000
  C   C659      1.0  0.77681  0.30010  0.16938  1.0000
  C   C660      1.0  0.75339  0.27377  0.16113  1.0000
  C   C661      1.0  0.72938  0.28295  0.15371  1.0000
  C   C662      1.0  0.72930  0.31868  0.15436  1.0000
  H   H1143     1.0  0.79597  0.35630  0.17585  1.0000
  H   H1144     1.0  0.79525  0.29310  0.17521  1.0000
  H   H1145     1.0  0.71075  0.26250  0.14758  1.0000
  H   H1146     1.0  0.71077  0.32568  0.14866  1.0000
  H   H1147     1.0  0.84817  0.39633  0.06824  1.0000
  H   H1148     1.0  0.56560  0.13678  0.05757  1.0000
  C   C663      1.0  0.52531  0.30649  0.08583  1.0000
  H   H1149     1.0  0.74876  0.16153  0.20514  1.0000
  H   H1150     1.0  0.74230  0.11535  0.20006  1.0000
  H   H1151     1.0  0.96802  0.13483  0.22400  1.0000
  H   H1152     1.0  0.53106  0.30414  0.99143  1.0000
  C   C664      1.0  0.64302  0.23768  0.00738  1.0000
  C   C665      1.0  0.51441  0.30121  0.16895  1.0000
  C   C666      1.0  0.54855  0.32316  0.17156  1.0000
  C   C667      1.0  0.55502  0.33626  0.18628  1.0000
  C   C668      1.0  0.52736  0.32798  0.19826  1.0000
  H   H1153     1.0  0.70607  0.45798  0.02697  1.0000
  H   H1154     1.0  0.95472  0.07006  0.23179  1.0000
  H   H1155     1.0  0.56994  0.32924  0.16232  1.0000
  H   H1156     1.0  0.53233  0.33804  0.20965  1.0000
  H   H1157     1.0  0.59052  0.32325  0.00226  1.0000
  C   C669      1.0  0.54192  0.14200  0.15491  1.0000
  C   C670      1.0  0.53771  0.15465  0.14018  1.0000
  C   C671      1.0  0.56354  0.16176  0.12749  1.0000
  C   C672      1.0  0.59399  0.15697  0.12955  1.0000
  C   C673      1.0  0.59792  0.14340  0.14418  1.0000
  C   C674      1.0  0.57163  0.13548  0.15684  1.0000
  H   H1158     1.0  0.51472  0.15938  0.13853  1.0000
  H   H1159     1.0  0.56027  0.17212  0.11622  1.0000
  H   H1160     1.0  0.62110  0.13908  0.14577  1.0000
  H   H1161     1.0  0.57462  0.12507  0.16818  1.0000
  S   S154      1.0  0.90431  0.03234  0.19914  1.0000
  C   C675      1.0  0.97947  0.06106  0.16227  1.0000
  S   S155      1.0  0.79848  0.36864  0.02106  1.0000
  C   C676      1.0  0.96199  0.01798  0.19091  1.0000
  S   S156      1.0  0.50661  0.43212  0.05220  1.0000
  Fe  Fe76      1.0  0.76108  0.37874  0.00686  1.0000
  N   N36       1.0  0.81758  0.14819  0.16036  1.0000
  C   C677      1.0  0.80964  0.12339  0.14708  1.0000
  C   C678      1.0  0.78379  0.13665  0.17106  1.0000
  C   C679      1.0  0.82823  0.18781  0.15344  1.0000
  C   C680      1.0  0.84521  0.14309  0.16884  1.0000
  C   C681      1.0  0.83631  0.10305  0.17611  1.0000
  C   C682      1.0  0.84145  0.12431  0.13594  1.0000
  C   C683      1.0  0.85476  0.21896  0.16162  1.0000
  C   C684      1.0  0.78373  0.16012  0.18505  1.0000
  H   H1162     1.0  0.63173  0.08895  0.10864  1.0000
  C   C685      1.0  0.83019  0.10538  0.12110  1.0000
  C   C686      1.0  0.62915  0.44550  0.10635  1.0000
  H   H1163     1.0  0.79195  0.13005  0.13991  1.0000
  H   H1164     1.0  0.79449  0.09395  0.15158  1.0000
  H   H1165     1.0  0.76289  0.13729  0.16421  1.0000
  H   H1166     1.0  0.77481  0.10730  0.17584  1.0000
  H   H1167     1.0  0.80491  0.19435  0.15287  1.0000
  H   H1168     1.0  0.83962  0.19187  0.14094  1.0000
  H   H1169     1.0  0.87009  0.15252  0.16085  1.0000
  H   H1170     1.0  0.85124  0.16104  0.17866  1.0000
  C   C687      1.0  0.68442  0.24574  0.02577  1.0000
  H   H1171     1.0  0.81632  0.09608  0.18654  1.0000
  H   H1172     1.0  0.86064  0.15299  0.13237  1.0000
  H   H1173     1.0  0.85493  0.10924  0.14187  1.0000
  H   H1174     1.0  0.88059  0.21737  0.15973  1.0000
  H   H1175     1.0  0.84668  0.21668  0.17440  1.0000
  H   H1176     1.0  0.80368  0.16060  0.19256  1.0000
  H   H1177     1.0  0.78847  0.18894  0.18082  1.0000
  S   S157      1.0  0.52263  0.42809  0.01414  1.0000
  H   H1178     1.0  0.63427  0.13123  0.05290  1.0000
  S   S158      1.0  0.71360  0.44373  0.13649  1.0000
  H   H1179     1.0  0.66558  0.36070  0.19891  1.0000
  H   H1180     1.0  0.81703  0.11982  0.11453  1.0000
  H   H1181     1.0  0.85326  0.10608  0.11338  1.0000
  H   H1182     1.0  0.52135  0.03099  0.06216  1.0000
  H   H1183     1.0  0.85240  0.43091  0.20031  1.0000
  C   C688      1.0  0.97444  0.11772  0.21524  1.0000
  N   N37       1.0  0.62473  0.25133  0.18681  1.0000
  C   C689      1.0  0.58739  0.22701  0.19291  1.0000
  C   C690      1.0  0.64730  0.23008  0.18895  1.0000
  C   C691      1.0  0.62917  0.26610  0.16994  1.0000
  C   C692      1.0  0.60555  0.24032  0.15889  1.0000
  C   C693      1.0  0.56204  0.24707  0.19376  1.0000
  C   C694      1.0  0.64007  0.19505  0.17993  1.0000
  C   C695      1.0  0.66154  0.17379  0.18480  1.0000
  C   C696      1.0  0.62073  0.25296  0.14180  1.0000
  C   C697      1.0  0.52420  0.21984  0.19462  1.0000
  H   H1184     1.0  0.58562  0.21430  0.20494  1.0000
  H   H1185     1.0  0.57679  0.20301  0.18585  1.0000
  H   H1186     1.0  0.67507  0.24788  0.18493  1.0000
  H   H1187     1.0  0.62393  0.29168  0.16924  1.0000
  H   H1188     1.0  0.65670  0.27478  0.16471  1.0000
  H   H1189     1.0  0.57926  0.24083  0.16062  1.0000
  H   H1190     1.0  0.60199  0.21116  0.16092  1.0000
  H   H1191     1.0  0.56452  0.26259  0.20440  1.0000
  H   H1192     1.0  0.56785  0.26720  0.18343  1.0000
  H   H1193     1.0  0.61243  0.17565  0.18217  1.0000
  H   H1194     1.0  0.64781  0.20319  0.16716  1.0000
  H   H1195     1.0  0.65688  0.14968  0.17770  1.0000
  H   H1196     1.0  0.68971  0.19186  0.18275  1.0000
  H   H1197     1.0  0.65405  0.16334  0.19738  1.0000
  H   H1198     1.0  0.60343  0.23418  0.13421  1.0000
  H   H1199     1.0  0.62313  0.28171  0.13888  1.0000
  H   H1200     1.0  0.64659  0.25157  0.13942  1.0000
  H   H1201     1.0  0.79831  0.28632  0.01714  1.0000
  C   C698      1.0  0.85455  0.31739  0.01353  1.0000
  H   H1202     1.0  0.89086  0.26260  0.07330  1.0000
  C   C699      1.0  0.88218  0.28396  0.07793  1.0000
  H   H1203     1.0  0.84375  0.10311  0.22732  1.0000
  H   H1204     1.0  0.69628  0.42958  0.08292  1.0000
  H   H1205     1.0  0.78690  0.43765  0.19048  1.0000
  H   H1206     1.0  0.69186  0.23584  0.03610  1.0000
  H   H1207     1.0  0.85238  0.34450  0.01288  1.0000
  S   S159      1.0  0.74036  0.40515  0.02573  1.0000
  C   C700      1.0  0.61745  0.46823  0.09768  1.0000
  N   N38       1.0  0.49757  0.34330  0.10276  1.0000
  C   C701      1.0  0.60416  0.06940  0.11172  1.0000
  H   H1208     1.0  0.60239  0.35431  0.04192  1.0000
  H   H1209     1.0  0.64089  0.45477  0.11683  1.0000
  H   H1210     1.0  0.80954  0.39454  0.20150  1.0000
  H   H1211     1.0  0.57512  0.08276  0.05127  1.0000
  H   H1212     1.0  0.93825  0.38202  0.03217  1.0000
  H   H1213     1.0  0.86178  0.07596  0.21589  1.0000
  H   H1214     1.0  0.50730  0.28022  0.09249  1.0000
  H   H1215     1.0  0.63203  0.32314  0.00436  1.0000
  C   C702      1.0  0.86899  0.30095  0.06510  1.0000
  C   C703      1.0  0.89799  0.32043  0.05122  1.0000
  H   H1216     1.0  0.53168  0.36268  0.08082  1.0000
  H   H1217     1.0  0.83571  0.29522  0.03769  1.0000
  C   C704      1.0  0.51729  0.29355  0.00303  1.0000
  C   C705      1.0  0.57587  0.13703  0.06902  1.0000
  C   C706      1.0  0.51286  0.31797  0.01368  1.0000
  N   N39       1.0  0.65984  0.28359  0.08510  1.0000
  C   C707      1.0  0.64965  0.29333  0.06978  1.0000
  C   C708      1.0  0.62723  0.26265  0.09632  1.0000
  C   C709      1.0  0.68244  0.31913  0.09139  1.0000
  C   C710      1.0  0.67991  0.25941  0.08282  1.0000
  C   C711      1.0  0.66207  0.22349  0.07470  1.0000
  C   C712      1.0  0.67910  0.30802  0.05572  1.0000
  C   C713      1.0  0.69591  0.31490  0.10713  1.0000
  C   C714      1.0  0.60686  0.28586  0.10258  1.0000
  C   C715      1.0  0.56912  0.26147  0.10904  1.0000
  C   C716      1.0  0.68689  0.20427  0.07121  1.0000
  C   C717      1.0  0.66567  0.31834  0.04125  1.0000
  C   C718      1.0  0.71673  0.35289  0.11263  1.0000
  H   H1218     1.0  0.63888  0.31482  0.07119  1.0000
  H   H1219     1.0  0.62810  0.26915  0.06613  1.0000
  H   H1220     1.0  0.60915  0.23904  0.09070  1.0000
  H   H1221     1.0  0.63310  0.24931  0.10666  1.0000
  H   H1222     1.0  0.66901  0.33843  0.09257  1.0000
  H   H1223     1.0  0.70601  0.33436  0.08292  1.0000
  H   H1224     1.0  0.70607  0.27559  0.07625  1.0000
  H   H1225     1.0  0.68490  0.25000  0.09432  1.0000
  H   H1226     1.0  0.65339  0.22865  0.06347  1.0000
  H   H1227     1.0  0.63903  0.20400  0.08250  1.0000
  H   H1228     1.0  0.70111  0.33295  0.05828  1.0000
  H   H1229     1.0  0.68956  0.28702  0.05263  1.0000
  H   H1230     1.0  0.71358  0.30017  0.10573  1.0000
  H   H1231     1.0  0.67430  0.29925  0.11645  1.0000
  H   H1232     1.0  0.61960  0.30170  0.11218  1.0000
  H   H1233     1.0  0.60632  0.30611  0.09342  1.0000
  H   H1234     1.0  0.56732  0.23825  0.11727  1.0000
  H   H1235     1.0  0.55711  0.27837  0.11541  1.0000
  H   H1236     1.0  0.55388  0.24984  0.09934  1.0000
  H   H1237     1.0  0.70839  0.22105  0.06198  1.0000
  H   H1238     1.0  0.69805  0.20041  0.08190  1.0000
  H   H1239     1.0  0.67289  0.17674  0.06702  1.0000
  H   H1240     1.0  0.64535  0.29335  0.03741  1.0000
  H   H1241     1.0  0.65510  0.33953  0.04376  1.0000
  H   H1242     1.0  0.68722  0.33030  0.03152  1.0000
  H   H1243     1.0  0.73109  0.34965  0.12228  1.0000
  H   H1244     1.0  0.73600  0.37145  0.10296  1.0000
  H   H1245     1.0  0.69916  0.36624  0.11699  1.0000
  H   H1246     1.0  0.56885  0.33398  0.02977  1.0000
  Fe  Fe77      1.0  0.56395  0.46193  0.05200  1.0000
  H   H1247     1.0  0.59145  0.08089  0.12082  1.0000
  C   C719      1.0  0.82120  0.28835  0.00889  1.0000
  C   C720      1.0  0.62046  0.36402  0.01696  1.0000
  C   C721      1.0  0.56015  0.15788  0.08032  1.0000
  C   C722      1.0  0.55867  0.19181  0.07174  1.0000
  H   H1248     1.0  0.54958  0.32385  0.06163  1.0000
  C   C723      1.0  0.73691  0.02505  0.17167  1.0000
  H   H1249     1.0  0.87868  0.27914  0.16069  1.0000
  C   C724      1.0  0.97881  0.08492  0.22353  1.0000
  S   S160      1.0  0.77229  0.38388  0.06501  1.0000
  H   H1250     1.0  0.57667  0.16759  0.08978  1.0000
  H   H1251     1.0  0.53346  0.14024  0.08585  1.0000
  H   H1252     1.0  0.58439  0.20962  0.06522  1.0000
  H   H1253     1.0  0.53941  0.18281  0.06338  1.0000
  H   H1254     1.0  0.55025  0.20802  0.08024  1.0000
  C   C725      1.0  0.68573  0.40235  0.06182  1.0000
  H   H1255     1.0  0.68063  0.40781  0.04976  1.0000
  H   H1256     1.0  0.70741  0.39304  0.06124  1.0000
  H   H1257     1.0  0.66208  0.38001  0.06812  1.0000
  S   S161      1.0  0.74449  0.01157  0.19012  1.0000
  C   C726      1.0  0.53227  0.29808  0.06895  1.0000
  H   H1258     1.0  0.50687  0.23491  0.19653  1.0000
  Fe  Fe78      1.0  0.51709  0.17665  0.00704  1.0000
  Fe  Fe79      1.0  0.78271  0.45810  0.01486  1.0000
  H   H1259     1.0  0.95281  0.10719  0.20801  1.0000
  H   H1260     1.0  0.82198  0.43568  0.17755  1.0000
  C   C727      1.0  0.94853  0.05546  0.17180  1.0000
  H   H1261     1.0  0.87636  0.31963  0.00458  1.0000
  C   C728      1.0  0.70686  0.27966  0.01741  1.0000
  H   H1262     1.0  0.92060  0.34148  0.05582  1.0000
  H   H1263     1.0  0.86015  0.42634  0.05024  1.0000
  H   H1264     1.0  0.86077  0.27034  0.08767  1.0000
  H   H1265     1.0  0.68156  0.32137  0.18029  1.0000
  H   H1266     1.0  0.90733  0.29907  0.04710  1.0000
  H   H1267     1.0  0.76849  0.47594  0.20393  1.0000
  H   H1268     1.0  0.59886  0.31274  0.03261  1.0000
  C   C729      1.0  0.69727  0.29247  0.00399  1.0000
  H   H1269     1.0  0.64562  0.22186  0.20165  1.0000
  H   H1270     1.0  0.81206  0.07596  0.12412  1.0000
  C   C730      1.0  0.87032  0.41525  0.05973  1.0000
  H   H1271     1.0  0.62073  0.30071  0.19554  1.0000
  H   H1272     1.0  0.51737  0.08749  0.07011  1.0000
  C   C731      1.0  0.60251  0.45651  0.08403  1.0000
  C   C732      1.0  0.66828  0.46859  0.01485  1.0000
  H   H1273     1.0  0.93182  0.06849  0.16822  1.0000
  H   H1274     1.0  0.91481  0.41540  0.04529  1.0000
  C   C733      1.0  0.59622  0.33966  0.03116  1.0000
  C   C734      1.0  0.63642  0.28386  0.19676  1.0000
  C   C735      1.0  0.53095  0.07573  0.07782  1.0000
  C   C736      1.0  0.51721  0.03398  0.07492  1.0000
  C   C737      1.0  0.89201  0.39475  0.05293  1.0000
  H   H1275     1.0  0.90122  0.38420  0.06290  1.0000
  C   C738      1.0  0.81534  0.44576  0.18879  1.0000
  Fe  Fe80      1.0  0.78110  0.39941  0.03904  1.0000
  H   H1276     1.0  0.54522  0.38406  0.14960  1.0000
  S   S162      1.0  0.53483  0.10049  0.02935  1.0000
  H   H1277     1.0  0.61840  0.22197  0.00345  1.0000
  C   C739      1.0  0.67497  0.31173  0.19293  1.0000
  H   H1278     1.0  0.63178  0.27386  0.20942  1.0000
  H   H1279     1.0  0.69292  0.29904  0.19623  1.0000
  H   H1280     1.0  0.52400  0.34751  0.01041  1.0000
  S   S163      1.0  0.82195  0.45499  0.02988  1.0000
  H   H1281     1.0  0.50740  0.38487  0.12942  1.0000
  Fe  Fe81      1.0  0.51997  0.39461  0.03631  1.0000
  C   C740      1.0  0.69464  0.43716  0.07053  1.0000
  H   H1282     1.0  0.68141  0.38423  0.99678  1.0000
  C   C741      1.0  0.66298  0.48877  0.00233  1.0000
  H   H1283     1.0  0.50026  0.33855  0.13674  1.0000
  H   H1284     1.0  0.95313  0.32932  0.02811  1.0000
  Fe  Fe82      1.0  0.57059  0.16010  0.02312  1.0000
  H   H1285     1.0  0.84477  0.34709  0.05037  1.0000
  H   H1286     1.0  0.67283  0.44594  0.07045  1.0000
  H   H1287     1.0  0.88857  0.10426  0.17128  1.0000
  C   C742      1.0  0.87049  0.36305  0.04334  1.0000
  C   C743      1.0  0.65209  0.22512  0.02093  1.0000
  H   H1288     1.0  0.86442  0.37679  0.03324  1.0000
  H   H1289     1.0  0.81744  0.29657  0.99694  1.0000
  H   H1290     1.0  0.64023  0.10334  0.06857  1.0000
  C   C744      1.0  0.61833  0.34180  0.00228  1.0000
  C   C745      1.0  0.71940  0.04874  0.17072  1.0000
  C   C746      1.0  0.62560  0.41090  0.10141  1.0000
  H   H1291     1.0  0.78821  0.46866  0.16673  1.0000
  C   C747      1.0  0.89997  0.99421  0.14430  1.0000
  H   H1292     1.0  0.86879  0.28264  0.02903  1.0000
  H   H1293     1.0  0.73141  0.46763  0.05016  1.0000
  H   H1294     1.0  0.56493  0.35980  0.13721  1.0000
  S   S164      1.0  0.63979  0.38192  0.11199  1.0000
  C   C748      1.0  0.85901  0.25733  0.15491  1.0000
  H   H1295     1.0  0.57217  0.11029  0.09915  1.0000
  H   H1296     1.0  0.59820  0.05043  0.08882  1.0000
  H   H1297     1.0  0.52603  0.41473  0.08466  1.0000
  H   H1298     1.0  0.87915  0.11919  0.19024  1.0000
  C   C749      1.0  0.82419  0.42488  0.20186  1.0000
  H   H1299     1.0  0.58149  0.05307  0.06546  1.0000
  C   C750      1.0  0.68219  0.34608  0.20200  1.0000
  H   H1300     1.0  0.67717  0.33824  0.21483  1.0000
  H   H1301     1.0  0.55810  0.04343  0.10100  1.0000
  H   H1302     1.0  0.61314  0.12096  0.08825  1.0000
  Fe  Fe83      1.0  0.52048  0.10115  0.00503  1.0000
  C   C751      1.0  0.50481  0.25546  0.00751  1.0000
  H   H1303     1.0  0.72765  0.14415  0.18824  1.0000
  C   C752      1.0  0.58525  0.06315  0.09719  1.0000
  C   C753      1.0  0.61050  0.39907  0.08782  1.0000
  H   H1304     1.0  0.82622  0.08183  0.16775  1.0000
  H   H1305     1.0  0.70980  0.36553  0.19888  1.0000
  H   H1306     1.0  0.86089  0.07068  0.18685  1.0000
  H   H1307     1.0  0.83402  0.26076  0.15705  1.0000
  C   C754      1.0  0.74840  0.14418  0.19523  1.0000
  H   H1308     1.0  0.73132  0.29596  0.02142  1.0000
  H   H1309     1.0  0.89762  0.01646  0.15127  1.0000
  H   H1310     1.0  0.52046  0.07791  0.09000  1.0000
  N   N40       1.0  0.56994  0.09804  0.07490  1.0000
  H   H1311     1.0  0.62847  0.08216  0.03497  1.0000
  H   H1312     1.0  0.91264  0.37415  0.01672  1.0000
  H   H1313     1.0  0.55003  0.37749  0.10650  1.0000
  Fe  Fe84      1.0  0.57873  0.45860  0.01731  1.0000
  H   H1314     1.0  0.63493  0.05389  0.05052  1.0000
  H   H1315     1.0  0.88659  0.43883  0.06593  1.0000
  H   H1316     1.0  0.81677  0.43277  0.21351  1.0000
  S   S165      1.0  0.62292  0.18409  0.03195  1.0000
  H   H1317     1.0  0.91204  0.00343  0.23038  1.0000
  H   H1318     1.0  0.67594  0.48516  0.05133  1.0000
  Fe  Fe85      1.0  0.51305  0.46757  0.03011  1.0000
  H   H1319     1.0  0.60756  0.37222  0.08404  1.0000
  H   H1320     1.0  0.58724  0.41250  0.06876  1.0000
  N   N41       1.0  0.88737  0.33744  0.03774  1.0000
  C   C755      1.0  0.99319  0.02396  0.18144  1.0000
  H   H1321     1.0  0.54486  0.27798  0.06868  1.0000
  H   H1322     1.0  0.51964  0.20681  0.18341  1.0000
  H   H1323     1.0  0.57001  0.40633  0.13101  1.0000
  H   H1324     1.0  0.88684  0.10601  0.22950  1.0000
  H   H1325     1.0  0.51515  0.46935  0.09157  1.0000
  C   C756      1.0  0.92160  0.46638  0.99243  1.0000
  H   H1326     1.0  0.53078  0.42279  0.10488  1.0000
  C   C757      1.0  0.86033  0.08706  0.22749  1.0000
  C   C758      1.0  0.51877  0.36379  0.12941  1.0000
  H   H1327     1.0  0.76265  0.99542  0.15862  1.0000
  S   S166      1.0  0.55998  0.15922  0.99811  1.0000
  H   H1328     1.0  0.51740  0.19790  0.20439  1.0000
  H   H1329     1.0  0.92234  0.31162  0.01446  1.0000
  H   H1330     1.0  0.50747  0.28560  0.06393  1.0000
  C   C759      1.0  0.66587  0.27064  0.99876  1.0000
  Fe  Fe86      1.0  0.68715  0.46690  0.15461  1.0000
  S   S167      1.0  0.89281  0.43111  0.00643  1.0000
  S   S168      1.0  0.51262  0.22563  0.99439  1.0000
  H   H1331     1.0  0.82346  0.45685  0.14860  1.0000
  H   H1332     1.0  0.89418  0.05005  0.23952  1.0000
  C   C760      1.0  0.93963  0.33729  0.01911  1.0000
  H   H1333     1.0  0.81779  0.03812  0.23815  1.0000
  H   H1334     1.0  0.50950  0.29107  0.15759  1.0000
  H   H1335     1.0  0.82266  0.26075  0.00886  1.0000
  S   S169      1.0  0.72303  0.33597  0.99374  1.0000
  C   C761      1.0  0.51049  0.33691  0.08657  1.0000
  C   C762      1.0  0.70216  0.47456  0.01769  1.0000
  H   H1336     1.0  0.60317  0.39765  0.99196  1.0000
  H   H1337     1.0  0.97902  0.06470  0.21509  1.0000
  H   H1338     1.0  0.95482  0.36839  0.99609  1.0000
  C   C763      1.0  0.96720  0.36070  0.00567  1.0000
  H   H1339     1.0  0.98192  0.34459  0.00084  1.0000
  H   H1340     1.0  0.98576  0.38644  0.00987  1.0000
  S   S170      1.0  0.58807  0.48536  0.07339  1.0000
  H   H1341     1.0  0.85963  0.48503  0.15758  1.0000
  C   C764      1.0  0.83711  0.48541  0.15208  1.0000
  S   S171      1.0  0.62123  0.47807  0.99702  1.0000
  H   H1342     1.0  0.98633  0.07803  0.15124  1.0000
  H   H1343     1.0  0.71289  0.48275  0.20579  1.0000
  C   C765      1.0  0.83594  0.48840  0.18853  1.0000
  H   H1344     1.0  0.75224  0.47216  0.18524  1.0000
  S   S172      1.0  0.80100  0.43260  0.99474  1.0000
  H   H1345     1.0  0.66495  0.41867  0.99320  1.0000
  H   H1346     1.0  0.96619  0.45567  0.99722  1.0000
  H   H1347     1.0  0.69325  0.49143  0.08597  1.0000
  C   C766      1.0  0.76384  0.49151  0.19399  1.0000
  C   C767      1.0  0.84467  0.05521  0.24043  1.0000
  C   C768      1.0  0.86629  0.03107  0.24040  1.0000
  S   S173      1.0  0.51995  0.05272  0.99154  1.0000
  H   H1348     1.0  0.74331  0.43477  0.46831  1.0000
  H   H1349     1.0  0.88228  0.02813  0.29838  1.0000
  H   H1350     1.0  0.67876  0.17290  0.45189  1.0000
  H   H1351     1.0  0.67956  0.43791  0.45109  1.0000
  C   C769      1.0  0.52368  0.04188  0.44603  1.0000
  H   H1352     1.0  0.56920  0.15154  0.45191  1.0000
  H   H1353     1.0  0.76064  0.32284  0.45488  1.0000
  S   S174      1.0  0.67461  0.05813  0.47035  1.0000
  H   H1354     1.0  0.90643  0.02865  0.26229  1.0000
  H   H1355     1.0  0.74524  0.25589  0.44817  1.0000
  H   H1356     1.0  0.84282  0.03650  0.28014  1.0000
  H   H1357     1.0  0.72770  0.30104  0.47075  1.0000
  H   H1358     1.0  0.78704  0.41207  0.45625  1.0000
  C   C770      1.0  0.74587  0.24797  0.46062  1.0000
  H   H1359     1.0  0.70902  0.39578  0.46172  1.0000
  H   H1360     1.0  0.61988  0.15186  0.44361  1.0000
  H   H1361     1.0  0.59335  0.24720  0.46374  1.0000
  C   C771      1.0  0.87082  0.04543  0.27594  1.0000
  H   H1362     1.0  0.89197  0.36338  0.47203  1.0000
  H   H1363     1.0  0.79574  0.29060  0.46201  1.0000
  C   C772      1.0  0.81074  0.36731  0.47086  1.0000
  C   C773      1.0  0.63065  0.03023  0.46951  1.0000
  C   C774      1.0  0.65611  0.25622  0.48401  1.0000
  C   C775      1.0  0.73699  0.41456  0.45930  1.0000
  C   C776      1.0  0.75640  0.31321  0.46752  1.0000
  C   C777      1.0  0.60523  0.02438  0.48228  1.0000
  C   C778      1.0  0.75960  0.39223  0.45936  1.0000
  H   H1364     1.0  0.67471  0.12524  0.45365  1.0000
  H   H1365     1.0  0.66603  0.26206  0.47167  1.0000
  H   H1366     1.0  0.71906  0.23648  0.46694  1.0000
  H   H1367     1.0  0.74171  0.43010  0.44765  1.0000
  H   H1368     1.0  0.88009  0.07179  0.26836  1.0000
  C   C779      1.0  0.66623  0.14507  0.44757  1.0000
  H   H1369     1.0  0.87156  0.36613  0.45499  1.0000
  C   C780      1.0  0.62671  0.13161  0.45030  1.0000
  C   C781      1.0  0.87332  0.37334  0.46731  1.0000
  H   H1370     1.0  0.61885  0.10440  0.47320  1.0000
  C   C782      1.0  0.89033  0.05363  0.29028  1.0000
  N   N42       1.0  0.77288  0.34534  0.47711  1.0000
  H   H1371     1.0  0.64085  0.01684  0.44600  1.0000
  C   C783      1.0  0.76917  0.28140  0.46842  1.0000
  C   C784      1.0  0.62124  0.01238  0.45591  1.0000
  H   H1372     1.0  0.83011  0.32460  0.47755  1.0000
  H   H1373     1.0  0.81900  0.39682  0.47359  1.0000
  H   H1374     1.0  0.75614  0.22591  0.46099  1.0000
  C   C785      1.0  0.97468  0.04998  0.30506  1.0000
  C   C786      1.0  0.98344  0.03877  0.29060  1.0000
  H   H1375     1.0  0.81449  0.36819  0.45782  1.0000
  C   C787      1.0  0.79670  0.48809  0.48638  1.0000
  H   H1376     1.0  0.58343  0.45703  0.45993  1.0000
  H   H1377     1.0  0.61580  0.10422  0.44544  1.0000
  C   C788      1.0  0.66836  0.45910  0.45029  1.0000
  H   H1378     1.0  0.66359  0.46261  0.43800  1.0000
  C   C789      1.0  0.86264  0.48569  0.48133  1.0000
  C   C790      1.0  0.58814  0.19063  0.46881  1.0000
  H   H1379     1.0  0.64323  0.44873  0.45808  1.0000
  S   S175      1.0  0.65004  0.32290  0.48173  1.0000
  H   H1380     1.0  0.67512  0.14708  0.43484  1.0000
  H   H1381     1.0  0.53847  0.14462  0.46856  1.0000
  H   H1382     1.0  0.75249  0.37301  0.45003  1.0000
  H   H1383     1.0  0.56248  0.09722  0.44124  1.0000
  H   H1384     1.0  0.94803  0.03822  0.31061  1.0000
  H   H1385     1.0  0.91883  0.06438  0.28665  1.0000
  C   C791      1.0  0.55252  0.08271  0.46701  1.0000
  C   C792      1.0  0.58458  0.47092  0.47059  1.0000
  H   H1386     1.0  0.56566  0.06314  0.46770  1.0000
  C   C793      1.0  0.83789  0.35486  0.47727  1.0000
  H   H1387     1.0  0.88343  0.40400  0.46755  1.0000
  C   C794      1.0  0.87830  0.01568  0.26683  1.0000
  H   H1388     1.0  0.58201  0.21869  0.44763  1.0000
  H   H1389     1.0  0.88456  0.07493  0.29670  1.0000
  C   C795      1.0  0.75411  0.37095  0.47569  1.0000
  H   H1390     1.0  0.76910  0.27179  0.48068  1.0000
  H   H1391     1.0  0.76202  0.39227  0.48423  1.0000
  S   S176      1.0  0.90439  0.48581  0.47779  1.0000
  H   H1392     1.0  0.54969  0.21291  0.46428  1.0000
  H   H1393     1.0  0.72562  0.35543  0.47865  1.0000
  H   H1394     1.0  0.86795  0.27301  0.48245  1.0000
  H   H1395     1.0  0.58443  0.19357  0.48155  1.0000
  H   H1396     1.0  0.99354  0.08597  0.32335  1.0000
  C   C796      1.0  0.56640  0.15059  0.46487  1.0000
  C   C797      1.0  0.61319  0.12745  0.46797  1.0000
  H   H1397     1.0  0.51355  0.04176  0.43462  1.0000
  H   H1398     1.0  0.80936  0.00692  0.26266  1.0000
  H   H1399     1.0  0.50024  0.48064  0.47773  1.0000
  C   C798      1.0  0.57751  0.21893  0.46056  1.0000
  H   H1400     1.0  0.54299  0.02909  0.44483  1.0000
  H   H1401     1.0  0.50173  0.02474  0.45505  1.0000
  H   H1402     1.0  0.62970  0.15232  0.47344  1.0000
  H   H1403     1.0  0.52793  0.06962  0.47525  1.0000
  H   H1404     1.0  0.84299  0.06720  0.25174  1.0000
  C   C799      1.0  0.54064  0.08171  0.45049  1.0000
  N   N43       1.0  0.57530  0.12016  0.47199  1.0000
  H   H1405     1.0  0.61614  0.19846  0.46487  1.0000
  H   H1406     1.0  0.52108  0.09414  0.45040  1.0000
  C   C800      1.0  0.59240  0.45640  0.48415  1.0000
  N   N44       1.0  0.85702  0.00106  0.25370  1.0000
  H   H1407     1.0  0.50470  0.43697  0.47942  1.0000
  H   H1408     1.0  0.69822  0.49085  0.46743  1.0000
  S   S177      1.0  0.69874  0.15680  0.48492  1.0000
  H   H1409     1.0  0.59693  0.43116  0.48398  1.0000
  C   C801      1.0  0.57049  0.00088  0.48137  1.0000
  S   S178      1.0  0.79957  0.21474  0.48495  1.0000
  S   S179      1.0  0.95155  0.00711  0.28074  1.0000
  H   H1410     1.0  0.66274  0.20475  0.48616  1.0000
  H   H1411     1.0  0.59919  0.99833  0.31051  1.0000
  S   S180      1.0  0.66448  0.42441  0.48948  1.0000
  H   H1412     1.0  0.55978  0.00295  0.31860  1.0000
  H   H1413     1.0  0.56606  0.99490  0.29827  1.0000
  H   H1414     1.0  0.87567  0.99248  0.27536  1.0000
  H   H1415     1.0  0.96006  0.99581  0.33316  1.0000
  H   H1416     1.0  0.84114  0.36290  0.48945  1.0000
  C   C802      1.0  0.56773  0.11925  0.48961  1.0000
  H   H1417     1.0  0.99442  0.99672  0.34393  1.0000
  H   H1418     1.0  0.99269  0.02226  0.24184  1.0000
  Fe  Fe87      1.0  0.69017  0.09700  0.48943  1.0000
  C   C803      1.0  0.63567  0.45661  0.62168  1.0000
  S   S181      1.0  0.95712  0.42224  0.53031  1.0000
  S   S182      1.0  0.89272  0.44318  0.52109  1.0000
  Fe  Fe88      1.0  0.94386  0.47209  0.52997  1.0000
  C   C804      1.0  0.59880  0.22591  0.66194  1.0000
  Fe  Fe89      1.0  0.90826  0.39495  0.51949  1.0000
  S   S183      1.0  0.86772  0.33958  0.52945  1.0000
  C   C805      1.0  0.58908  0.18542  0.59826  1.0000
  H   H1419     1.0  0.80159  0.34591  0.57302  1.0000
  C   C806      1.0  0.96064  0.34562  0.55559  1.0000
  S   S184      1.0  0.72394  0.16809  0.52001  1.0000
  H   H1420     1.0  0.53973  0.13254  0.65498  1.0000
  H   H1421     1.0  0.92968  0.41508  0.61360  1.0000
  S   S185      1.0  0.66148  0.08926  0.51366  1.0000
  Fe  Fe90      1.0  0.67395  0.15025  0.50976  1.0000
  S   S186      1.0  0.63543  0.17393  0.51820  1.0000
  Fe  Fe91      1.0  0.71441  0.10800  0.52149  1.0000
  S   S187      1.0  0.72908  0.08558  0.54270  1.0000
  C   C807      1.0  0.74105  0.39392  0.60313  1.0000
  H   H1422     1.0  0.52137  0.48875  0.52898  1.0000
  S   S188      1.0  0.59666  0.36159  0.68079  1.0000
  S   S189      1.0  0.59351  0.32060  0.63884  1.0000
  H   H1423     1.0  0.95980  0.42730  0.59573  1.0000
  S   S190      1.0  0.84226  0.41091  0.66036  1.0000
  Fe  Fe92      1.0  0.71354  0.19358  0.65177  1.0000
  S   S191      1.0  0.71603  0.21931  0.62784  1.0000
  S   S192      1.0  0.68085  0.20397  0.67171  1.0000
  Fe  Fe93      1.0  0.76054  0.15596  0.64065  1.0000
  S   S193      1.0  0.76712  0.17776  0.61541  1.0000
  S   S194      1.0  0.78246  0.11814  0.65150  1.0000
  Fe  Fe94      1.0  0.77246  0.23118  0.62544  1.0000
  S   S195      1.0  0.80628  0.28663  0.61310  1.0000
  Fe  Fe95      1.0  0.70991  0.16413  0.61963  1.0000
  S   S196      1.0  0.67289  0.14583  0.60169  1.0000
  S   S197      1.0  0.77108  0.21109  0.65032  1.0000
  S   S198      1.0  0.70244  0.13696  0.64392  1.0000
  H   H1424     1.0  0.60046  0.09385  0.49904  1.0000
  H   H1425     1.0  0.54058  0.14736  0.58993  1.0000
  Fe  Fe96      1.0  0.97201  0.16255  0.65556  1.0000
  S   S199      1.0  0.94438  0.13671  0.67937  1.0000
  S   S200      1.0  0.94384  0.16264  0.63469  1.0000
  Fe  Fe97      1.0  0.83528  0.46131  0.65095  1.0000
  H   H1426     1.0  0.89279  0.25711  0.61331  1.0000
  H   H1427     1.0  0.72292  0.28016  0.49717  1.0000
  C   C808      1.0  0.66453  0.44146  0.61908  1.0000
  C   C809      1.0  0.63274  0.27370  0.50778  1.0000
  H   H1428     1.0  0.75332  0.41975  0.55224  1.0000
  C   C810      1.0  0.82707  0.13034  0.64641  1.0000
  C   C811      1.0  0.84429  0.11493  0.65568  1.0000
  C   C812      1.0  0.88017  0.12504  0.65220  1.0000
  C   C813      1.0  0.89890  0.15007  0.63927  1.0000
  C   C814      1.0  0.88151  0.16496  0.62980  1.0000
  C   C815      1.0  0.84569  0.15554  0.63350  1.0000
  H   H1429     1.0  0.82995  0.09568  0.66573  1.0000
  H   H1430     1.0  0.89320  0.11313  0.65942  1.0000
  H   H1431     1.0  0.89589  0.18432  0.61977  1.0000
  H   H1432     1.0  0.83248  0.16768  0.62639  1.0000
  H   H1433     1.0  0.62823  0.39869  0.55337  1.0000
  H   H1434     1.0  0.85396  0.15529  0.58817  1.0000
  H   H1435     1.0  0.58876  0.44299  0.67389  1.0000
  S   S201      1.0  0.93454  0.41110  0.49480  1.0000
  H   H1436     1.0  0.53528  0.33234  0.70342  1.0000
  C   C816      1.0  0.83317  0.37696  0.64697  1.0000
  C   C817      1.0  0.83344  0.34238  0.65127  1.0000
  C   C818      1.0  0.82421  0.31422  0.64104  1.0000
  C   C819      1.0  0.81553  0.32090  0.62633  1.0000
  C   C820      1.0  0.81604  0.35577  0.62185  1.0000
  C   C821      1.0  0.82485  0.38377  0.63217  1.0000
  H   H1437     1.0  0.84044  0.33730  0.66261  1.0000
  H   H1438     1.0  0.82453  0.28761  0.64441  1.0000
  H   H1439     1.0  0.80930  0.36111  0.61049  1.0000
  H   H1440     1.0  0.82543  0.41068  0.62860  1.0000
  C   C822      1.0  0.59111  0.20868  0.64806  1.0000
  C   C823      1.0  0.60893  0.18736  0.64243  1.0000
  C   C824      1.0  0.63554  0.18478  0.65012  1.0000
  C   C825      1.0  0.64405  0.20284  0.66368  1.0000
  H   H1441     1.0  0.60295  0.17336  0.63192  1.0000
  H   H1442     1.0  0.64957  0.16885  0.64545  1.0000
  C   C826      1.0  0.63664  0.39977  0.67621  1.0000
  C   C827      1.0  0.65933  0.40338  0.66255  1.0000
  H   H1443     1.0  0.87427  0.09903  0.69921  1.0000
  C   C828      1.0  0.71124  0.48213  0.57726  1.0000
  H   H1444     1.0  0.65210  0.38255  0.65428  1.0000
  H   H1445     1.0  0.79129  0.14371  0.70343  1.0000
  S   S202      1.0  0.81874  0.48864  0.59676  1.0000
  C   C829      1.0  0.71296  0.10102  0.55935  1.0000
  C   C830      1.0  0.68735  0.11495  0.55832  1.0000
  C   C831      1.0  0.67493  0.12808  0.57148  1.0000
  C   C832      1.0  0.68858  0.12824  0.58561  1.0000
  C   C833      1.0  0.71432  0.11444  0.58667  1.0000
  C   C834      1.0  0.72620  0.10038  0.57357  1.0000
  H   H1446     1.0  0.67676  0.11523  0.54743  1.0000
  H   H1447     1.0  0.65500  0.13851  0.57066  1.0000
  H   H1448     1.0  0.72455  0.11394  0.59764  1.0000
  H   H1449     1.0  0.74574  0.08924  0.57444  1.0000
  C   C835      1.0  0.64710  0.36771  0.56844  1.0000
  C   C836      1.0  0.64350  0.35105  0.58355  1.0000
  C   C837      1.0  0.61852  0.35262  0.59527  1.0000
  H   H1450     1.0  0.66011  0.33705  0.58618  1.0000
  H   H1451     1.0  0.61574  0.33951  0.60683  1.0000
  H   H1452     1.0  0.90721  0.42682  0.58175  1.0000
  C   C838      1.0  0.52683  0.39279  0.69028  1.0000
  C   C839      1.0  0.67749  0.45788  0.68376  1.0000
  H   H1453     1.0  0.88003  0.45624  0.55248  1.0000
  C   C840      1.0  0.84848  0.30829  0.51589  1.0000
  C   C841      1.0  0.49741  0.42767  0.51117  1.0000
  C   C842      1.0  0.70039  0.46159  0.67024  1.0000
  C   C843      1.0  0.86787  0.30498  0.50229  1.0000
  H   H1454     1.0  0.61312  0.27149  0.57932  1.0000
  C   C844      1.0  0.81365  0.28408  0.51955  1.0000
  H   H1455     1.0  0.95920  0.99838  0.72180  1.0000
  H   H1456     1.0  0.79863  0.28686  0.53001  1.0000
  H   H1457     1.0  0.51404  0.27761  0.72255  1.0000
  H   H1458     1.0  0.89451  0.24604  0.70991  1.0000
  H   H1459     1.0  0.96090  0.48182  0.61025  1.0000
  H   H1460     1.0  0.70750  0.23891  0.59090  1.0000
  H   H1461     1.0  0.63059  0.23495  0.68077  1.0000
  N   N45       1.0  0.71039  0.32636  0.67351  1.0000
  C   C845      1.0  0.67412  0.32067  0.68073  1.0000
  C   C846      1.0  0.70865  0.31415  0.65705  1.0000
  C   C847      1.0  0.73444  0.36681  0.67247  1.0000
  C   C848      1.0  0.73862  0.38479  0.68821  1.0000
  C   C849      1.0  0.69021  0.33074  0.64611  1.0000
  C   C850      1.0  0.76562  0.42465  0.68594  1.0000
  C   C851      1.0  0.68651  0.31237  0.63068  1.0000
  H   H1462     1.0  0.66884  0.34567  0.67790  1.0000
  H   H1463     1.0  0.65416  0.29794  0.67548  1.0000
  H   H1464     1.0  0.69537  0.28329  0.65754  1.0000
  H   H1465     1.0  0.73523  0.32163  0.65076  1.0000
  H   H1466     1.0  0.76060  0.37153  0.66639  1.0000
  H   H1467     1.0  0.72494  0.38357  0.66502  1.0000
  H   H1468     1.0  0.71371  0.38589  0.69318  1.0000
  H   H1469     1.0  0.70545  0.36096  0.64324  1.0000
  H   H1470     1.0  0.66373  0.32644  0.65143  1.0000
  H   H1471     1.0  0.96687  0.28451  0.72002  1.0000
  C   C852      1.0  0.85266  0.27625  0.49274  1.0000
  H   H1472     1.0  0.78483  0.31702  0.49654  1.0000
  H   H1473     1.0  0.62902  0.42378  0.69759  1.0000
  H   H1474     1.0  0.67364  0.32473  0.62292  1.0000
  H   H1475     1.0  0.71245  0.31653  0.62458  1.0000
  H   H1476     1.0  0.67031  0.28210  0.63290  1.0000
  C   C853      1.0  0.71244  0.40806  0.60150  1.0000
  C   C854      1.0  0.86013  0.21967  0.68392  1.0000
  C   C855      1.0  0.86005  0.20879  0.66682  1.0000
  C   C856      1.0  0.84825  0.13173  0.71017  1.0000
  H   H1477     1.0  0.86015  0.04064  0.68400  1.0000
  C   C857      1.0  0.87855  0.24298  0.65517  1.0000
  H   H1478     1.0  0.80508  0.14947  0.68308  1.0000
  H   H1479     1.0  0.84935  0.24135  0.68482  1.0000
  H   H1480     1.0  0.88798  0.23402  0.68556  1.0000
  H   H1481     1.0  0.83327  0.19473  0.66387  1.0000
  H   H1482     1.0  0.87397  0.19024  0.66496  1.0000
  H   H1483     1.0  0.79297  0.20863  0.68156  1.0000
  H   H1484     1.0  0.84646  0.14223  0.72184  1.0000
  H   H1485     1.0  0.82225  0.11079  0.70861  1.0000
  C   C858      1.0  0.77509  0.42488  0.54278  1.0000
  H   H1486     1.0  0.84892  0.04295  0.65934  1.0000
  H   H1487     1.0  0.90608  0.25753  0.65717  1.0000
  H   H1488     1.0  0.87816  0.23415  0.64308  1.0000
  H   H1489     1.0  0.86524  0.26237  0.65620  1.0000
  H   H1490     1.0  0.74722  0.14698  0.67744  1.0000
  C   C859      1.0  0.92597  0.34533  0.56300  1.0000
  C   C860      1.0  0.89802  0.30676  0.59941  1.0000
  C   C861      1.0  0.89555  0.28590  0.61515  1.0000
  H   H1491     1.0  0.52781  0.43651  0.67324  1.0000
  H   H1492     1.0  0.86245  0.32469  0.57704  1.0000
  H   H1493     1.0  0.91234  0.35063  0.55346  1.0000
  H   H1494     1.0  0.91006  0.31691  0.56833  1.0000
  H   H1495     1.0  0.87414  0.29095  0.59420  1.0000
  H   H1496     1.0  0.92104  0.30653  0.59198  1.0000
  H   H1497     1.0  0.91926  0.29982  0.62084  1.0000
  H   H1498     1.0  0.75891  0.44121  0.67711  1.0000
  C   C862      1.0  0.97662  0.26702  0.72630  1.0000
  C   C863      1.0  0.60115  0.38801  0.57682  1.0000
  H   H1499     1.0  0.82261  0.32615  0.55886  1.0000
  N   N46       1.0  0.82915  0.19877  0.54804  1.0000
  C   C864      1.0  0.85529  0.23391  0.53900  1.0000
  C   C865      1.0  0.79383  0.20044  0.54952  1.0000
  C   C866      1.0  0.84042  0.19555  0.56389  1.0000
  C   C867      1.0  0.82690  0.16497  0.53966  1.0000
  C   C868      1.0  0.89300  0.23620  0.53578  1.0000
  C   C869      1.0  0.78940  0.23064  0.55955  1.0000
  C   C870      1.0  0.75261  0.22930  0.56009  1.0000
  C   C871      1.0  0.91537  0.26881  0.52387  1.0000
  H   H1500     1.0  0.85720  0.25860  0.54533  1.0000
  H   H1501     1.0  0.84653  0.23854  0.52767  1.0000
  H   H1502     1.0  0.78722  0.20550  0.53772  1.0000
  H   H1503     1.0  0.77319  0.17314  0.55436  1.0000
  H   H1504     1.0  0.84625  0.22185  0.56964  1.0000
  H   H1505     1.0  0.86528  0.19166  0.56253  1.0000
  H   H1506     1.0  0.80396  0.14009  0.54510  1.0000
  H   H1507     1.0  0.60933  0.29544  0.69795  1.0000
  H   H1508     1.0  0.80004  0.17204  0.51983  1.0000
  H   H1509     1.0  0.90512  0.24045  0.54679  1.0000
  H   H1510     1.0  0.89394  0.21071  0.53110  1.0000
  H   H1511     1.0  0.80837  0.13610  0.57046  1.0000
  H   H1512     1.0  0.79007  0.16675  0.57874  1.0000
  H   H1513     1.0  0.79406  0.22681  0.57182  1.0000
  H   H1514     1.0  0.80754  0.25880  0.55457  1.0000
  H   H1515     1.0  0.73340  0.20256  0.56612  1.0000
  H   H1516     1.0  0.75063  0.25227  0.56666  1.0000
  H   H1517     1.0  0.74622  0.23257  0.54806  1.0000
  H   H1518     1.0  0.90628  0.26390  0.51219  1.0000
  H   H1519     1.0  0.91425  0.29511  0.52760  1.0000
  H   H1520     1.0  0.94282  0.27183  0.52275  1.0000
  C   C872      1.0  0.61029  0.43670  0.63632  1.0000
  H   H1521     1.0  0.76598  0.40376  0.53425  1.0000
  H   H1522     1.0  0.95158  0.08432  0.61417  1.0000
  S   S203      1.0  0.53307  0.35107  0.65047  1.0000
  H   H1523     1.0  0.51210  0.11200  0.61481  1.0000
  H   H1524     1.0  0.62334  0.44387  0.64701  1.0000
  H   H1525     1.0  0.89929  0.13146  0.71217  1.0000
  C   C873      1.0  0.57241  0.08787  0.49936  1.0000
  C   C874      1.0  0.91193  0.04955  0.63281  1.0000
  C   C875      1.0  0.76890  0.33295  0.49433  1.0000
  Fe  Fe98      1.0  0.97931  0.18955  0.68797  1.0000
  H   H1526     1.0  0.79690  0.42154  0.54792  1.0000
  H   H1527     1.0  0.89732  0.25514  0.73754  1.0000
  H   H1528     1.0  0.81922  0.13392  0.50211  1.0000
  Fe  Fe99      1.0  0.98834  0.11880  0.68100  1.0000
  H   H1529     1.0  0.89988  0.00748  0.70367  1.0000
  C   C876      1.0  0.65427  0.22378  0.49219  1.0000
  H   H1530     1.0  0.91072  0.06351  0.65652  1.0000
  H   H1531     1.0  0.73246  0.47212  0.57676  1.0000
  C   C877      1.0  0.88098  0.03040  0.68492  1.0000
  S   S204      1.0  0.97822  0.06262  0.69243  1.0000
  H   H1532     1.0  0.60340  0.16685  0.59849  1.0000
  H   H1533     1.0  0.90661  0.05371  0.68171  1.0000
  H   H1534     1.0  0.62073  0.45185  0.61151  1.0000
  C   C878      1.0  0.52028  0.10565  0.66073  1.0000
  H   H1535     1.0  0.56866  0.30193  0.57823  1.0000
  C   C879      1.0  0.54039  0.12943  0.61357  1.0000
  N   N47       1.0  0.60305  0.21320  0.58401  1.0000
  H   H1536     1.0  0.55083  0.99619  0.49128  1.0000
  H   H1537     1.0  0.86012  0.26171  0.73187  1.0000
  H   H1538     1.0  0.56839  0.11194  0.52150  1.0000
  C   C880      1.0  0.57618  0.45574  0.68248  1.0000
  H   H1539     1.0  0.52188  0.44287  0.50321  1.0000
  C   C881      1.0  0.64566  0.28138  0.49184  1.0000
  H   H1540     1.0  0.60190  0.21776  0.55901  1.0000
  C   C882      1.0  0.73148  0.30772  0.50193  1.0000
  C   C883      1.0  0.94980  0.07353  0.62649  1.0000
  C   C884      1.0  0.66470  0.31012  0.69872  1.0000
  H   H1541     1.0  0.78008  0.33141  0.67569  1.0000
  C   C885      1.0  0.82355  0.16724  0.52188  1.0000
  C   C886      1.0  0.82303  0.35248  0.56324  1.0000
  H   H1542     1.0  0.81853  0.36886  0.55354  1.0000
  H   H1543     1.0  0.74714  0.36950  0.69680  1.0000
  H   H1544     1.0  0.75928  0.29295  0.66425  1.0000
  C   C887      1.0  0.62480  0.22220  0.66996  1.0000
  H   H1545     1.0  0.68819  0.38768  0.60828  1.0000
  H   H1546     1.0  0.54665  0.14083  0.62497  1.0000
  H   H1547     1.0  0.52529  0.08296  0.65512  1.0000
  H   H1548     1.0  0.85999  0.14952  0.68558  1.0000
  C   C888      1.0  0.98683  0.03632  0.66373  1.0000
  C   C889      1.0  0.59742  0.37129  0.59193  1.0000
  C   C890      1.0  0.62565  0.38584  0.56503  1.0000
  C   C891      1.0  0.81463  0.16310  0.57554  1.0000
  H   H1549     1.0  0.96585  0.05691  0.62683  1.0000
  S   S205      1.0  0.67924  0.36689  0.55404  1.0000
  H   H1550     1.0  0.62900  0.17525  0.55889  1.0000
  H   H1551     1.0  0.87246  0.28439  0.62310  1.0000
  C   C892      1.0  0.79825  0.25614  0.50980  1.0000
  H   H1552     1.0  0.58480  0.40234  0.57417  1.0000
  H   H1553     1.0  0.55930  0.06045  0.49495  1.0000
  C   C893      1.0  0.72382  0.30242  0.68271  1.0000
  C   C894      1.0  0.86122  0.16331  0.69668  1.0000
  C   C895      1.0  0.74553  0.16085  0.68831  1.0000
  H   H1554     1.0  0.70900  0.40864  0.58890  1.0000
  H   H1555     1.0  0.66849  0.43248  0.58870  1.0000
  C   C896      1.0  0.75966  0.30300  0.67612  1.0000
  N   N48       1.0  0.84164  0.18822  0.69654  1.0000
  C   C897      1.0  0.80503  0.16530  0.69354  1.0000
  C   C898      1.0  0.78169  0.18693  0.69149  1.0000
  C   C899      1.0  0.84497  0.01569  0.65480  1.0000
  H   H1556     1.0  0.72934  0.17690  0.68674  1.0000
  C   C900      1.0  0.87563  0.22355  0.71842  1.0000
  Fe  Fe100     1.0  0.92309  0.46190  0.49725  1.0000
  C   C901      1.0  0.90249  0.34727  0.60149  1.0000
  C   C902      1.0  0.64619  0.42666  0.68693  1.0000
  C   C903      1.0  0.86637  0.35188  0.58149  1.0000
  C   C904      1.0  0.85800  0.37490  0.56876  1.0000
  H   H1557     1.0  0.84554  0.34552  0.59148  1.0000
  H   H1558     1.0  0.87862  0.38442  0.55854  1.0000
  H   H1559     1.0  0.70478  0.27307  0.68369  1.0000
  H   H1560     1.0  0.66203  0.28116  0.70143  1.0000
  H   H1561     1.0  0.73245  0.13936  0.69827  1.0000
  H   H1562     1.0  0.72821  0.44515  0.61964  1.0000
  H   H1563     1.0  0.78300  0.44011  0.50271  1.0000
  S   S206      1.0  0.70727  0.38707  0.50924  1.0000
  H   H1564     1.0  0.82946  0.22627  0.71105  1.0000
  H   H1565     1.0  0.79544  0.27811  0.68134  1.0000
  H   H1566     1.0  0.55117  0.28055  0.59799  1.0000
  H   H1567     1.0  0.89492  0.32355  0.49946  1.0000
  H   H1568     1.0  0.91651  0.47119  0.60718  1.0000
  H   H1569     1.0  0.88033  0.40519  0.59968  1.0000
  H   H1570     1.0  0.72600  0.30991  0.69493  1.0000
  H   H1571     1.0  0.50519  0.43064  0.52318  1.0000
  H   H1572     1.0  0.62257  0.30095  0.71729  1.0000
  H   H1573     1.0  0.70746  0.99849  0.51433  1.0000
  C   C905      1.0  0.88259  0.47432  0.56178  1.0000
  H   H1574     1.0  0.58927  0.11975  0.54909  1.0000
  H   H1575     1.0  0.77830  0.20043  0.70225  1.0000
  H   H1576     1.0  0.77225  0.28688  0.69847  1.0000
  H   H1577     1.0  0.79723  0.10758  0.52050  1.0000
  H   H1578     1.0  0.84964  0.15800  0.54107  1.0000
  Fe  Fe101     1.0  0.56923  0.33121  0.66143  1.0000
  H   H1579     1.0  0.88711  0.20325  0.72094  1.0000
  C   C906      1.0  0.94100  0.46880  0.60240  1.0000
  C   C907      1.0  0.68524  0.00705  0.51585  1.0000
  H   H1580     1.0  0.71263  0.31983  0.49975  1.0000
  H   H1581     1.0  0.65355  0.27281  0.59784  1.0000
  H   H1582     1.0  0.52854  0.07545  0.51759  1.0000
  C   C908      1.0  0.83017  0.16091  0.59064  1.0000
  H   H1583     1.0  0.81102  0.13795  0.59892  1.0000
  C   C909      1.0  0.93140  0.37568  0.57471  1.0000
  H   H1584     1.0  0.55910  0.24282  0.56811  1.0000
  H   H1585     1.0  0.50964  0.33814  0.72017  1.0000
  C   C910      1.0  0.66010  0.24850  0.59578  1.0000
  N   N49       1.0  0.90137  0.37010  0.58716  1.0000
  H   H1586     1.0  0.84377  0.01994  0.64204  1.0000
  H   H1587     1.0  0.74706  0.46589  0.60062  1.0000
  H   H1588     1.0  0.73311  0.36562  0.59908  1.0000
  C   C911      1.0  0.76995  0.27752  0.68648  1.0000
  C   C912      1.0  0.84028  0.20471  0.71203  1.0000
  H   H1589     1.0  0.83677  0.18726  0.59635  1.0000
  H   H1590     1.0  0.77910  0.35769  0.50114  1.0000
  H   H1591     1.0  0.68469  0.32855  0.70542  1.0000
  H   H1592     1.0  0.88240  0.34673  0.61109  1.0000
  H   H1593     1.0  0.92781  0.36025  0.60610  1.0000
  H   H1594     1.0  0.93885  0.40221  0.56728  1.0000
  C   C913      1.0  0.69175  0.43384  0.65980  1.0000
  H   H1595     1.0  0.82197  0.18344  0.72123  1.0000
  H   H1596     1.0  0.84653  0.18990  0.51522  1.0000
  C   C914      1.0  0.50844  0.32288  0.70955  1.0000
  H   H1597     1.0  0.85555  0.39948  0.57366  1.0000
  H   H1598     1.0  0.75034  0.24851  0.68714  1.0000
  H   H1599     1.0  0.70967  0.43644  0.64947  1.0000
  H   H1600     1.0  0.95496  0.37916  0.58034  1.0000
  C   C915      1.0  0.97434  0.02781  0.67970  1.0000
  H   H1601     1.0  0.56266  0.18607  0.56953  1.0000
  C   C916      1.0  0.60171  0.16375  0.56473  1.0000
  H   H1602     1.0  0.52231  0.37688  0.52244  1.0000
  H   H1603     1.0  0.74590  0.39265  0.61554  1.0000
  Fe  Fe102     1.0  0.67332  0.38929  0.53062  1.0000
  H   H1604     1.0  0.58798  0.44515  0.63720  1.0000
  H   H1605     1.0  0.76555  0.41231  0.59580  1.0000
  H   H1606     1.0  0.50462  0.34216  0.50906  1.0000
  S   S207      1.0  0.95623  0.22075  0.70341  1.0000
  S   S208      1.0  0.78807  0.45437  0.63952  1.0000
  C   C917      1.0  0.90450  0.40767  0.59217  1.0000
  C   C918      1.0  0.63019  0.31205  0.70480  1.0000
  C   C919      1.0  0.57870  0.14002  0.55335  1.0000
  H   H1607     1.0  0.64616  0.48665  0.62327  1.0000
  C   C920      1.0  0.54994  0.27649  0.58534  1.0000
  C   C921      1.0  0.54962  0.16078  0.60062  1.0000
  H   H1608     1.0  0.59964  0.14511  0.57512  1.0000
  H   H1609     1.0  0.63287  0.34134  0.70399  1.0000
  H   H1610     1.0  0.74545  0.28624  0.52270  1.0000
  C   C922      1.0  0.85335  0.46994  0.57233  1.0000
  C   C923      1.0  0.87282  0.11177  0.71040  1.0000
  H   H1611     1.0  0.58473  0.24193  0.66651  1.0000
  H   H1612     1.0  0.79174  0.42520  0.68205  1.0000
  H   H1613     1.0  0.60025  0.40622  0.63570  1.0000
  C   C924      1.0  0.93529  0.42815  0.60138  1.0000
  C   C925      1.0  0.81791  0.25143  0.49662  1.0000
  Fe  Fe103     1.0  0.63490  0.42483  0.51252  1.0000
  C   C926      1.0  0.69650  0.47593  0.56168  1.0000
  H   H1614     1.0  0.50076  0.39684  0.71737  1.0000
  H   H1615     1.0  0.53694  0.38722  0.50165  1.0000
  H   H1616     1.0  0.58510  0.14542  0.49400  1.0000
  H   H1617     1.0  0.78552  0.02793  0.66531  1.0000
  S   S209      1.0  0.52959  0.27285  0.66686  1.0000
  C   C927      1.0  0.95312  0.05628  0.73606  1.0000
  H   H1618     1.0  0.73790  0.32819  0.52512  1.0000
  C   C928      1.0  0.64057  0.21568  0.50804  1.0000
  C   C929      1.0  0.55806  0.24318  0.58105  1.0000
  H   H1619     1.0  0.68974  0.02997  0.50682  1.0000
  S   S210      1.0  0.74229  0.11070  0.49760  1.0000
  H   H1620     1.0  0.49746  0.26610  0.70416  1.0000
  Fe  Fe104     1.0  0.71118  0.44402  0.50219  1.0000
  H   H1621     1.0  0.61895  0.23438  0.52805  1.0000
  C   C930      1.0  0.82089  0.13126  0.51487  1.0000
  H   H1622     1.0  0.86313  0.08949  0.72019  1.0000
  N   N50       1.0  0.69516  0.46353  0.60704  1.0000
  H   H1623     1.0  0.59325  0.25276  0.59868  1.0000
  S   S211      1.0  0.51244  0.27802  0.63040  1.0000
  C   C931      1.0  0.83642  0.45946  0.49211  1.0000
  H   H1624     1.0  0.62471  0.29303  0.51391  1.0000
  H   H1625     1.0  0.71192  0.27791  0.60204  1.0000
  H   H1626     1.0  0.84163  0.43833  0.49846  1.0000
  C   C932      1.0  0.59124  0.19613  0.56913  1.0000
  H   H1627     1.0  0.54069  0.11709  0.49290  1.0000
  C   C933      1.0  0.53677  0.43415  0.68476  1.0000
  S   S212      1.0  0.59824  0.45365  0.51562  1.0000
  C   C934      1.0  0.98192  0.00770  0.65376  1.0000
  C   C935      1.0  0.59323  0.24610  0.58620  1.0000
  H   H1628     1.0  0.52344  0.27213  0.58277  1.0000
  C   C936      1.0  0.64225  0.22743  0.58208  1.0000
  H   H1629     1.0  0.96046  0.09750  0.63357  1.0000
  H   H1630     1.0  0.65356  0.24620  0.57107  1.0000
  H   H1631     1.0  0.53617  0.21785  0.58648  1.0000
  H   H1632     1.0  0.59444  0.20001  0.60908  1.0000
  C   C937      1.0  0.80322  0.46035  0.49444  1.0000
  H   H1633     1.0  0.84416  0.12547  0.51642  1.0000
  C   C938      1.0  0.51405  0.37230  0.51058  1.0000
  H   H1634     1.0  0.66315  0.47425  0.59108  1.0000
  Fe  Fe105     1.0  0.55402  0.33571  0.62809  1.0000
  C   C939      1.0  0.87921  0.01771  0.70213  1.0000
  S   S213      1.0  0.56644  0.37443  0.60639  1.0000
  H   H1635     1.0  0.57802  0.15769  0.54310  1.0000
  Fe  Fe106     1.0  0.98272  0.44302  0.50561  1.0000
  Fe  Fe107     1.0  0.65791  0.36742  0.49830  1.0000
  S   S214      1.0  0.55935  0.21333  0.63761  1.0000
  H   H1636     1.0  0.70198  0.28430  0.52472  1.0000
  H   H1637     1.0  0.77116  0.23847  0.51248  1.0000
  H   H1638     1.0  0.70925  0.28175  0.58133  1.0000
  H   H1639     1.0  0.55182  0.12450  0.55929  1.0000
  H   H1640     1.0  0.65213  0.22993  0.60680  1.0000
  C   C940      1.0  0.62953  0.24052  0.51578  1.0000
  C   C941      1.0  0.72931  0.30137  0.51970  1.0000
  C   C942      1.0  0.69960  0.26263  0.59222  1.0000
  H   H1641     1.0  0.65087  0.20413  0.58078  1.0000
  Fe  Fe108     1.0  0.49516  0.29178  0.65395  1.0000
  C   C943      1.0  0.97529  0.23390  0.72047  1.0000
  S   S215      1.0  0.62328  0.36544  0.52029  1.0000
  Fe  Fe109     1.0  0.55026  0.26404  0.64306  1.0000
  C   C944      1.0  0.55722  0.08480  0.51651  1.0000
  H   H1642     1.0  0.90318  0.02533  0.62576  1.0000
  H   H1643     1.0  0.52519  0.44767  0.69338  1.0000
  H   H1644     1.0  0.53614  0.38022  0.68040  1.0000
  H   H1645     1.0  0.76657  0.43773  0.69717  1.0000
  S   S216      1.0  0.68225  0.44860  0.52471  1.0000
  H   H1646     1.0  0.88934  0.17992  0.69685  1.0000
  H   H1647     1.0  0.53481  0.17757  0.60433  1.0000
  H   H1648     1.0  0.54298  0.39262  0.69971  1.0000
  H   H1649     1.0  0.56346  0.06431  0.52344  1.0000
  C   C945      1.0  0.90801  0.03810  0.65062  1.0000
  C   C946      1.0  0.72206  0.44717  0.60746  1.0000
  H   H1650     1.0  0.55477  0.11159  0.61072  1.0000
  H   H1651     1.0  0.93069  0.03217  0.65294  1.0000
  C   C947      1.0  0.78704  0.46375  0.53448  1.0000
  H   H1652     1.0  0.82836  0.44846  0.57108  1.0000
  H   H1653     1.0  0.65137  0.41261  0.61582  1.0000
  H   H1654     1.0  0.52368  0.10380  0.67332  1.0000
  H   H1655     1.0  0.58679  0.45607  0.69379  1.0000
  H   H1656     1.0  0.69012  0.44681  0.55900  1.0000
  H   H1657     1.0  0.88339  0.04131  0.70945  1.0000
  C   C948      1.0  0.78079  0.00209  0.65938  1.0000
  C   C949      1.0  0.59255  0.47350  0.49810  1.0000
  C   C950      1.0  0.87140  0.24083  0.73367  1.0000
  H   H1658     1.0  0.89626  0.06606  0.63082  1.0000
  C   C951      1.0  0.98176  0.01235  0.72822  1.0000
  H   H1659     1.0  0.97347  0.07982  0.72847  1.0000
  H   H1660     1.0  0.95612  0.32593  0.54636  1.0000
  C   C952      1.0  0.68268  0.46176  0.59120  1.0000
  H   H1661     1.0  0.61244  0.03747  0.49291  1.0000
  N   N51       1.0  0.87513  0.00552  0.65725  1.0000
  H   H1662     1.0  0.58273  0.48486  0.67795  1.0000
  H   H1663     1.0  0.68414  0.47918  0.69188  1.0000
  H   H1664     1.0  0.97807  0.37372  0.55014  1.0000
  H   H1665     1.0  0.99138  0.01424  0.64139  1.0000
  H   H1666     1.0  0.98637  0.18547  0.72415  1.0000
  H   H1667     1.0  0.68417  0.01755  0.52761  1.0000
  H   H1668     1.0  0.97371  0.33699  0.56460  1.0000
  C   C953      1.0  0.98808  0.21143  0.72855  1.0000
  H   H1669     1.0  0.67336  0.43832  0.63052  1.0000
  Fe  Fe110     1.0  0.74821  0.16994  0.49546  1.0000
  H   H1670     1.0  0.76540  0.46466  0.52835  1.0000
  H   H1671     1.0  0.80916  0.46770  0.52558  1.0000
  H   H1672     1.0  0.93141  0.04187  0.72924  1.0000
  H   H1673     1.0  0.78060  0.00807  0.64667  1.0000
  H   H1674     1.0  0.77123  0.48915  0.55322  1.0000
  H   H1675     1.0  0.95042  0.48413  0.59060  1.0000
  C   C954      1.0  0.87707  0.99822  0.67442  1.0000
  H   H1676     1.0  0.81188  0.48690  0.55470  1.0000
  H   H1677     1.0  0.85351  0.99529  0.70646  1.0000
  H   H1678     1.0  0.67275  0.48184  0.56201  1.0000
  H   H1679     1.0  0.49741  0.16078  0.66219  1.0000
  C   C955      1.0  0.49647  0.28162  0.71458  1.0000
  C   C956      1.0  0.99116  0.27802  0.74007  1.0000
  H   H1680     1.0  0.88844  0.22035  0.81262  1.0000
  H   H1681     1.0  0.58713  0.25426  0.96060  1.0000
  C   C957      1.0  0.90583  0.26494  0.77665  1.0000
  H   H1682     1.0  0.58193  0.35915  0.98178  1.0000
  H   H1683     1.0  0.94207  0.23819  0.77378  1.0000
  H   H1684     1.0  0.95945  0.30536  0.77148  1.0000
  Fe  Fe111     1.0  0.82083  0.99621  0.78433  1.0000
  H   H1685     1.0  0.96347  0.05275  0.80946  1.0000
  H   H1686     1.0  0.91168  0.22788  0.76019  1.0000
  C   C958      1.0  0.92476  0.09728  0.79960  1.0000
  H   H1687     1.0  0.51483  0.36894  0.97980  1.0000
  C   C959      1.0  0.58945  0.41861  0.96341  1.0000
  C   C960      1.0  0.72576  0.44399  0.97569  1.0000
  H   H1688     1.0  0.94331  0.13320  0.74805  1.0000
  H   H1689     1.0  0.85451  0.21909  0.74300  1.0000
  H   H1690     1.0  0.70592  0.38703  0.97060  1.0000
  H   H1691     1.0  0.58486  0.99946  0.89415  1.0000
  H   H1692     1.0  0.94244  0.18911  0.76007  1.0000
  H   H1693     1.0  0.98905  0.04482  0.74897  1.0000
  H   H1694     1.0  0.61630  0.29635  0.94911  1.0000
  C   C961      1.0  0.85565  0.19157  0.78742  1.0000
  C   C962      1.0  0.92131  0.10907  0.81457  1.0000
  H   H1695     1.0  0.56754  0.39399  0.96032  1.0000
  H   H1696     1.0  0.95017  0.10200  0.79370  1.0000
  H   H1697     1.0  0.89601  0.16119  0.80232  1.0000
  H   H1698     1.0  0.85255  0.01803  0.83580  1.0000
  C   C963      1.0  0.92694  0.99838  0.83475  1.0000
  H   H1699     1.0  0.59696  0.28436  0.98489  1.0000
  C   C964      1.0  0.97093  0.02884  0.81141  1.0000
  H   H1700     1.0  0.93638  0.19190  0.79254  1.0000
  H   H1701     1.0  0.64119  0.43382  0.96909  1.0000
  H   H1702     1.0  0.58008  0.43061  0.97347  1.0000
  H   H1703     1.0  0.88539  0.11014  0.83406  1.0000
  C   C965      1.0  0.61898  0.40783  0.96737  1.0000
  C   C966      1.0  0.90976  0.48813  0.98337  1.0000
  C   C967      1.0  0.60790  0.38119  0.98249  1.0000
  C   C968      1.0  0.89511  0.07857  0.79237  1.0000
  C   C969      1.0  0.90954  0.18961  0.79643  1.0000
  H   H1704     1.0  0.58150  0.30894  0.97149  1.0000
  H   H1705     1.0  0.62634  0.39517  0.95710  1.0000
  H   H1706     1.0  0.64507  0.35307  0.96274  1.0000
  H   H1707     1.0  0.68427  0.41373  0.96285  1.0000
  H   H1708     1.0  0.89783  0.06940  0.78082  1.0000
  H   H1709     1.0  0.92323  0.99253  0.84770  1.0000
  C   C970      1.0  0.52184  0.01444  0.93827  1.0000
  C   C971      1.0  0.63673  0.33874  0.97470  1.0000
  H   H1710     1.0  0.89903  0.10683  0.75673  1.0000
  C   C972      1.0  0.85870  0.08434  0.81488  1.0000
  C   C973      1.0  0.61064  0.28023  0.96068  1.0000
  H   H1711     1.0  0.92931  0.22844  0.83194  1.0000
  S   S217      1.0  0.95786  0.13297  0.82381  1.0000
  H   H1712     1.0  0.71716  0.46725  0.97630  1.0000
  C   C974      1.0  0.66817  0.39434  0.98825  1.0000
  H   H1713     1.0  0.92715  0.32463  0.77106  1.0000
  H   H1714     1.0  0.84351  0.19430  0.77679  1.0000
  N   N52       1.0  0.89208  0.19421  0.78254  1.0000
  H   H1715     1.0  0.90630  0.18007  0.82929  1.0000
  C   C975      1.0  0.90521  0.02119  0.83128  1.0000
  C   C976      1.0  0.69531  0.40826  0.97329  1.0000
  H   H1716     1.0  0.88257  0.48353  0.98497  1.0000
  C   C977      1.0  0.91397  0.23063  0.77290  1.0000
  C   C978      1.0  0.88819  0.10166  0.82237  1.0000
  H   H1717     1.0  0.93309  0.24561  0.80393  1.0000
  H   H1718     1.0  0.94679  0.00721  0.74983  1.0000
  C   C979      1.0  0.86212  0.07278  0.79988  1.0000
  H   H1719     1.0  0.59889  0.43978  0.95320  1.0000
  H   H1720     1.0  0.93441  0.29905  0.75514  1.0000
  H   H1721     1.0  0.97506  0.04236  0.85038  1.0000
  N   N53       1.0  0.96517  0.01635  0.82864  1.0000
  H   H1722     1.0  0.77770  0.13127  0.80942  1.0000
  C   C980      1.0  0.96808  0.02927  0.74203  1.0000
  H   H1723     1.0  0.63276  0.27257  0.96257  1.0000
  H   H1724     1.0  0.87404  0.16413  0.76251  1.0000
  H   H1725     1.0  0.90449  0.26882  0.78933  1.0000
  H   H1726     1.0  0.87430  0.13551  0.77897  1.0000
  H   H1727     1.0  0.57812  0.08321  0.93812  1.0000
  H   H1728     1.0  0.65811  0.33030  0.97713  1.0000
  H   H1729     1.0  0.84091  0.15120  0.80827  1.0000
  H   H1730     1.0  0.88048  0.26160  0.77283  1.0000
  S   S218      1.0  0.82527  0.05274  0.79033  1.0000
  C   C981      1.0  0.55997  0.99704  0.89008  1.0000
  H   H1731     1.0  0.97152  0.07106  0.83498  1.0000
  C   C982      1.0  0.79534  0.15754  0.80248  1.0000
  H   H1732     1.0  0.78310  0.16115  0.79206  1.0000
  C   C983      1.0  0.91829  0.13504  0.75226  1.0000
  N   N54       1.0  0.63297  0.36448  0.98665  1.0000
  C   C984      1.0  0.57362  0.06293  0.94832  1.0000
  H   H1733     1.0  0.91535  0.04831  0.83632  1.0000
  H   H1734     1.0  0.83320  0.07955  0.82078  1.0000
  C   C985      1.0  0.92568  0.20697  0.82350  1.0000
  C   C986      1.0  0.95938  0.01441  0.78361  1.0000
  H   H1735     1.0  0.85577  0.21487  0.79427  1.0000
  H   H1736     1.0  0.55616  0.06734  0.95789  1.0000
  C   C987      1.0  0.92374  0.16157  0.76520  1.0000
  C   C988      1.0  0.88903  0.16296  0.77231  1.0000
  H   H1737     1.0  0.98762  0.02537  0.77939  1.0000
  H   H1738     1.0  0.90539  0.02611  0.81850  1.0000
  H   H1739     1.0  0.49878  0.40523  0.98039  1.0000
  C   C989      1.0  0.93346  0.30059  0.76802  1.0000
  C   C990      1.0  0.91332  0.21800  0.80881  1.0000
  H   H1740     1.0  0.93563  0.15191  0.77439  1.0000
  H   H1741     1.0  0.54998  0.03162  0.90691  1.0000
  H   H1742     1.0  0.79857  0.18087  0.80990  1.0000
  C   C991      1.0  0.83036  0.15558  0.79744  1.0000
  C   C992      1.0  0.60407  0.30265  0.97381  1.0000
  H   H1743     1.0  0.50530  0.01630  0.94886  1.0000
  H   H1744     1.0  0.82504  0.13086  0.79073  1.0000
  H   H1745     1.0  0.94293  0.06740  0.74617  1.0000
  C   C993      1.0  0.55787  0.02317  0.94363  1.0000
  H   H1746     1.0  0.52381  0.03766  0.92988  1.0000
  H   H1747     1.0  0.94544  0.99191  0.77637  1.0000
  H   H1748     1.0  0.74675  0.45090  0.96570  1.0000
  H   H1749     1.0  0.65882  0.27921  0.98809  1.0000
  H   H1750     1.0  0.55514  0.00458  0.95417  1.0000
  H   H1751     1.0  0.57646  0.02023  0.93425  1.0000
  H   H1752     1.0  0.86536  0.99633  0.85143  1.0000
  C   C994      1.0  0.98192  0.04978  0.83751  1.0000
  H   H1753     1.0  0.56586  0.01827  0.88010  1.0000
  H   H1754     1.0  0.73642  0.44086  0.98667  1.0000
  H   H1755     1.0  0.99287  0.30412  0.74434  1.0000
  H   H1756     1.0  0.95087  0.20456  0.82051  1.0000
  H   H1757     1.0  0.90913  0.14545  0.74218  1.0000
  H   H1758     1.0  0.59890  0.06820  0.95264  1.0000
  H   H1759     1.0  0.51256  0.00191  0.89834  1.0000
  C   C995      1.0  0.53622  0.00330  0.90331  1.0000
  C   C996      1.0  0.95216  0.99850  0.80066  1.0000
  H   H1760     1.0  0.94990  0.03692  0.78227  1.0000
  C   C997      1.0  0.95695  0.47250  0.99024  1.0000
  C   C998      1.0  0.86731  0.00100  0.83850  1.0000
  Fe  Fe112     1.0  0.87645  0.68214  0.16413  1.0000
  S   S219      1.0  0.86020  0.67551  0.19009  1.0000
  S   S220      1.0  0.85994  0.63568  0.14829  1.0000
  H   H1761     1.0  0.88117  0.95454  0.16439  1.0000
  C   C999      1.0  0.70824  0.79073  0.21416  1.0000
  Fe  Fe113     1.0  0.85381  0.72917  0.18597  1.0000
  S   S221      1.0  0.80902  0.74016  0.19780  1.0000
  C   C1000     1.0  0.97628  0.73356  0.21671  1.0000
  C   C1001     1.0  0.82457  0.86986  0.23427  1.0000
  H   H1762     1.0  0.67554  0.76388  0.19644  1.0000
  S   S222      1.0  0.70113  0.52715  0.15873  1.0000
  S   S223      1.0  0.86596  0.73307  0.15984  1.0000
  S   S224      1.0  0.75843  0.91717  0.19407  1.0000
  Fe  Fe114     1.0  0.80730  0.92452  0.17870  1.0000
  S   S225      1.0  0.80531  0.88148  0.16192  1.0000
  H   H1763     1.0  0.99119  0.69944  0.23214  1.0000
  H   H1764     1.0  0.86370  0.49331  0.18515  1.0000
  C   C1002     1.0  0.89596  0.86637  0.14786  1.0000
  C   C1003     1.0  0.79821  0.52355  0.18688  1.0000
  H   H1765     1.0  0.96859  0.77488  0.20230  1.0000
  H   H1766     1.0  0.92700  0.59064  0.17620  1.0000
  C   C1004     1.0  0.73025  0.54357  0.09154  1.0000
  H   H1767     1.0  0.82649  0.72419  0.12815  1.0000
  H   H1768     1.0  0.68353  0.56612  0.04910  1.0000
  H   H1769     1.0  0.65663  0.76137  0.22604  1.0000
  S   S226      1.0  0.82481  0.98639  0.17320  1.0000
  C   C1005     1.0  0.88073  0.82767  0.12472  1.0000
  H   H1770     1.0  0.87787  0.54188  0.16636  1.0000
  H   H1771     1.0  0.89155  0.93710  0.22402  1.0000
  C   C1006     1.0  0.80994  0.69415  0.12820  1.0000
  C   C1007     1.0  0.89532  0.86902  0.19920  1.0000
  H   H1772     1.0  0.93622  0.95657  0.22748  1.0000
  C   C1008     1.0  0.80205  0.84026  0.17207  1.0000
  C   C1009     1.0  0.80649  0.81235  0.16366  1.0000
  C   C1010     1.0  0.80932  0.78200  0.17155  1.0000
  C   C1011     1.0  0.80554  0.77819  0.18792  1.0000
  C   C1012     1.0  0.79864  0.80470  0.19639  1.0000
  C   C1013     1.0  0.79717  0.83588  0.18848  1.0000
  H   H1773     1.0  0.80918  0.81501  0.15099  1.0000
  H   H1774     1.0  0.81396  0.76129  0.16496  1.0000
  H   H1775     1.0  0.79567  0.80186  0.20907  1.0000
  H   H1776     1.0  0.79247  0.85655  0.19512  1.0000
  C   C1014     1.0  0.81573  0.60585  0.15122  1.0000
  C   C1015     1.0  0.79322  0.60946  0.16353  1.0000
  C   C1016     1.0  0.75810  0.58492  0.16577  1.0000
  C   C1017     1.0  0.74548  0.55638  0.15592  1.0000
  C   C1018     1.0  0.76806  0.55249  0.14372  1.0000
  C   C1019     1.0  0.80309  0.57739  0.14131  1.0000
  H   H1777     1.0  0.80282  0.63117  0.17129  1.0000
  H   H1778     1.0  0.74068  0.58759  0.17532  1.0000
  H   H1779     1.0  0.75844  0.53062  0.13603  1.0000
  H   H1780     1.0  0.82047  0.57454  0.13178  1.0000
  H   H1781     1.0  0.74695  0.52589  0.20934  1.0000
  H   H1782     1.0  0.51220  0.59898  0.00889  1.0000
  H   H1783     1.0  0.82752  0.87626  0.22182  1.0000
  H   H1784     1.0  0.99397  0.66924  0.03186  1.0000
  H   H1785     1.0  0.88749  0.82695  0.11195  1.0000
  C   C1020     1.0  0.73076  0.50223  0.00861  1.0000
  H   H1786     1.0  0.79411  0.78709  0.23848  1.0000
  S   S227      1.0  0.94597  0.69581  0.20873  1.0000
  H   H1787     1.0  0.79186  0.54270  0.17911  1.0000
  H   H1788     1.0  0.70955  0.74762  0.19928  1.0000
  H   H1789     1.0  0.88470  0.80474  0.13106  1.0000
  C   C1021     1.0  0.90102  0.89851  0.17170  1.0000
  H   H1790     1.0  0.82702  0.67860  0.12800  1.0000
  H   H1791     1.0  0.86412  0.54071  0.13950  1.0000
  H   H1792     1.0  0.72311  0.56243  0.08408  1.0000
  S   S228      1.0  0.83984  0.93019  0.19822  1.0000
  H   H1793     1.0  0.92271  0.94346  0.13478  1.0000
  H   H1794     1.0  0.73641  0.52746  0.04418  1.0000
  H   H1795     1.0  0.75825  0.55712  0.09284  1.0000
  C   C1022     1.0  0.98809  0.63059  0.01378  1.0000
  N   N55       1.0  0.91415  0.90311  0.15440  1.0000
  H   H1796     1.0  0.72020  0.79224  0.18900  1.0000
  C   C1023     1.0  0.67609  0.53804  0.04489  1.0000
  H   H1797     1.0  0.73779  0.74633  0.23121  1.0000
  H   H1798     1.0  0.91286  0.92481  0.17723  1.0000
  H   H1799     1.0  0.85569  0.58898  0.18915  1.0000
  S   S229      1.0  0.90812  0.76520  0.18983  1.0000
  H   H1800     1.0  0.87481  0.55809  0.19581  1.0000
  C   C1024     1.0  0.90411  0.98096  0.23996  1.0000
  H   H1801     1.0  0.73582  0.79859  0.21576  1.0000
  H   H1802     1.0  0.89945  0.88709  0.12313  1.0000
  H   H1803     1.0  0.70370  0.81661  0.21275  1.0000
  H   H1804     1.0  0.80830  0.53912  0.19702  1.0000
  H   H1805     1.0  0.79676  0.68921  0.11748  1.0000
  C   C1025     1.0  0.90484  0.93177  0.14591  1.0000
  H   H1806     1.0  0.79385  0.54772  0.04202  1.0000
  C   C1026     1.0  0.73690  0.50625  0.20035  1.0000
  C   C1027     1.0  0.68316  0.76459  0.22818  1.0000
  C   C1028     1.0  0.68529  0.51287  0.05594  1.0000
  H   H1807     1.0  0.78370  0.55638  0.06945  1.0000
  H   H1808     1.0  0.96004  0.66551  0.01987  1.0000
  H   H1809     1.0  0.67092  0.51118  0.06767  1.0000
  C   C1029     1.0  0.81134  0.49485  0.16361  1.0000
  S   S230      1.0  0.80715  0.98800  0.21125  1.0000
  H   H1810     1.0  0.96855  0.95057  0.17024  1.0000
  C   C1030     1.0  0.97311  0.64988  0.02574  1.0000
  H   H1811     1.0  0.68939  0.54034  0.03281  1.0000
  C   C1031     1.0  0.90388  0.86513  0.12991  1.0000
  C   C1032     1.0  0.99337  0.84265  0.15372  1.0000
  N   N56       1.0  0.72920  0.68972  0.15702  1.0000
  C   C1033     1.0  0.73871  0.67495  0.17151  1.0000
  C   C1034     1.0  0.75965  0.70279  0.14407  1.0000
  C   C1035     1.0  0.72137  0.72286  0.16130  1.0000
  C   C1036     1.0  0.69712  0.66159  0.15153  1.0000
  C   C1037     1.0  0.69829  0.62394  0.14765  1.0000
  C   C1038     1.0  0.71035  0.66130  0.18598  1.0000
  C   C1039     1.0  0.71687  0.74665  0.14751  1.0000
  C   C1040     1.0  0.78328  0.68077  0.14291  1.0000
  S   S231      1.0  0.93305  0.71399  0.16582  1.0000
  C   C1041     1.0  0.66258  0.59612  0.14475  1.0000
  C   C1042     1.0  0.72293  0.64626  0.19966  1.0000
  C   C1043     1.0  0.71068  0.78006  0.15336  1.0000
  H   H1812     1.0  0.76237  0.69668  0.17518  1.0000
  H   H1813     1.0  0.74610  0.65141  0.16909  1.0000
  H   H1814     1.0  0.75050  0.70385  0.13244  1.0000
  H   H1815     1.0  0.77772  0.73177  0.14547  1.0000
  H   H1816     1.0  0.74218  0.74179  0.16762  1.0000
  H   H1817     1.0  0.69699  0.71402  0.16960  1.0000
  H   H1818     1.0  0.67391  0.65594  0.16028  1.0000
  H   H1819     1.0  0.69131  0.67301  0.14067  1.0000
  H   H1820     1.0  0.70647  0.61117  0.15730  1.0000
  H   H1821     1.0  0.71614  0.62770  0.13672  1.0000
  H   H1822     1.0  0.70367  0.68427  0.19017  1.0000
  H   H1823     1.0  0.68651  0.63862  0.18317  1.0000
  H   H1824     1.0  0.69427  0.73013  0.14162  1.0000
  H   H1825     1.0  0.74031  0.75769  0.13863  1.0000
  H   H1826     1.0  0.79789  0.68490  0.15316  1.0000
  H   H1827     1.0  0.76843  0.65065  0.14270  1.0000
  H   H1828     1.0  0.86754  0.85760  0.15066  1.0000
  H   H1829     1.0  0.90239  0.84434  0.15343  1.0000
  H   H1830     1.0  0.78610  0.51388  0.07599  1.0000
  H   H1831     1.0  0.64364  0.58968  0.15554  1.0000
  H   H1832     1.0  0.65292  0.60710  0.13502  1.0000
  H   H1833     1.0  0.66452  0.56984  0.14150  1.0000
  H   H1834     1.0  0.74648  0.66818  0.20318  1.0000
  H   H1835     1.0  0.70231  0.63693  0.20989  1.0000
  H   H1836     1.0  0.72906  0.62224  0.19642  1.0000
  H   H1837     1.0  0.73336  0.79856  0.15877  1.0000
  H   H1838     1.0  0.70713  0.79637  0.14335  1.0000
  H   H1839     1.0  0.68700  0.77091  0.16209  1.0000
  C   C1044     1.0  0.85659  0.54819  0.17254  1.0000
  C   C1045     1.0  0.87237  0.57403  0.18541  1.0000
  C   C1046     1.0  0.90836  0.60364  0.17933  1.0000
  H   H1840     1.0  0.85006  0.56504  0.16372  1.0000
  H   H1841     1.0  0.97577  0.97338  0.15069  1.0000
  H   H1842     1.0  0.87830  0.91860  0.14233  1.0000
  H   H1843     1.0  0.73445  0.55763  0.05856  1.0000
  S   S232      1.0  0.77338  0.51040  0.01200  1.0000
  H   H1844     1.0  0.90711  0.62033  0.16887  1.0000
  H   H1845     1.0  0.91811  0.62271  0.18856  1.0000
  C   C1047     1.0  0.89145  0.72851  0.23884  1.0000
  C   C1048     1.0  0.90906  0.94789  0.23308  1.0000
  H   H1846     1.0  0.92461  0.78618  0.23754  1.0000
  H   H1847     1.0  0.86833  0.85401  0.23331  1.0000
  H   H1848     1.0  0.55518  0.57348  0.01775  1.0000
  H   H1849     1.0  0.96627  0.61078  0.00842  1.0000
  H   H1850     1.0  0.86740  0.86413  0.20121  1.0000
  H   H1851     1.0  0.71808  0.56552  0.11313  1.0000
  H   H1852     1.0  0.68311  0.73636  0.22746  1.0000
  C   C1049     1.0  0.85004  0.51149  0.13700  1.0000
  H   H1853     1.0  0.80094  0.51232  0.15709  1.0000
  C   C1050     1.0  0.51095  0.58371  0.99822  1.0000
  Fe  Fe115     1.0  0.92101  0.76460  0.16394  1.0000
  H   H1854     1.0  0.95875  0.88981  0.15628  1.0000
  C   C1051     1.0  0.70285  0.77227  0.19880  1.0000
  H   H1855     1.0  0.68180  0.52774  0.10729  1.0000
  H   H1856     1.0  0.56747  0.61461  0.99270  1.0000
  H   H1857     1.0  0.54052  0.53350  0.00646  1.0000
  C   C1052     1.0  0.72497  0.52778  0.05640  1.0000
  H   H1858     1.0  0.93118  0.86850  0.12670  1.0000
  H   H1859     1.0  0.89905  0.84673  0.20613  1.0000
  N   N57       1.0  0.82527  0.51278  0.17805  1.0000
  C   C1053     1.0  0.71016  0.53847  0.10792  1.0000
  Fe  Fe116     1.0  0.79203  0.92680  0.21325  1.0000
  H   H1860     1.0  0.71553  0.51880  0.11579  1.0000
  H   H1861     1.0  0.93425  0.87213  0.18052  1.0000
  Fe  Fe117     1.0  0.91611  0.71188  0.19153  1.0000
  H   H1862     1.0  0.85295  0.82329  0.12700  1.0000
  H   H1863     1.0  0.87263  0.89185  0.17327  1.0000
  H   H1864     1.0  0.64760  0.52605  0.04445  1.0000
  C   C1054     1.0  0.72193  0.50573  0.08452  1.0000
  H   H1865     1.0  0.89065  0.84001  0.17863  1.0000
  N   N58       1.0  0.73745  0.50697  0.06775  1.0000
  S   S233      1.0  0.56950  0.50128  0.03140  1.0000
  C   C1055     1.0  0.90657  0.86816  0.18182  1.0000
  C   C1056     1.0  0.95262  0.91285  0.15150  1.0000
  H   H1866     1.0  0.85105  0.54502  0.04029  1.0000
  H   H1867     1.0  0.82779  0.50958  0.13069  1.0000
  H   H1868     1.0  0.58500  0.56644  0.00289  1.0000
  S   S234      1.0  0.77169  0.89479  0.23679  1.0000
  H   H1869     1.0  0.52679  0.65317  0.99263  1.0000
  H   H1870     1.0  0.84874  0.95680  0.23835  1.0000
  C   C1057     1.0  0.83658  0.54329  0.05205  1.0000
  C   C1058     1.0  0.90386  0.96466  0.15509  1.0000
  H   H1871     1.0  0.72995  0.52051  0.19068  1.0000
  C   C1059     1.0  0.77641  0.52697  0.06688  1.0000
  H   H1872     1.0  0.96155  0.91591  0.13872  1.0000
  H   H1873     1.0  0.61991  0.49491  0.10155  1.0000
  H   H1874     1.0  0.84216  0.52416  0.06012  1.0000
  S   S235      1.0  0.95386  0.81469  0.14744  1.0000
  C   C1060     1.0  0.79772  0.52869  0.05079  1.0000
  H   H1875     1.0  0.79017  0.50109  0.04619  1.0000
  H   H1876     1.0  0.74557  0.81026  0.23989  1.0000
  H   H1877     1.0  0.87620  0.98194  0.13846  1.0000
  C   C1061     1.0  0.98219  0.76984  0.21143  1.0000
  H   H1878     1.0  0.89761  0.72771  0.22603  1.0000
  C   C1062     1.0  0.54820  0.58541  0.99364  1.0000
  Fe  Fe118     1.0  0.85243  0.99078  0.19449  1.0000
  H   H1879     1.0  0.83458  0.49616  0.20082  1.0000
  Fe  Fe119     1.0  0.77826  0.97924  0.19042  1.0000
  H   H1880     1.0  0.95360  0.62879  0.03462  1.0000
  H   H1881     1.0  0.97942  0.81824  0.17758  1.0000
  H   H1882     1.0  0.84584  0.57141  0.05632  1.0000
  H   H1883     1.0  0.92748  0.97815  0.16078  1.0000
  H   H1884     1.0  0.91101  0.89615  0.20341  1.0000
  C   C1063     1.0  0.55774  0.56343  0.00599  1.0000
  C   C1064     1.0  0.97625  0.94925  0.15766  1.0000
  H   H1885     1.0  0.70495  0.83569  0.23704  1.0000
  H   H1886     1.0  0.86797  0.50324  0.12919  1.0000
  C   C1065     1.0  0.69159  0.51646  0.99330  1.0000
  C   C1066     1.0  0.72535  0.52384  0.99671  1.0000
  S   S236      1.0  0.50523  0.86323  0.39811  1.0000
  H   H1887     1.0  0.72399  0.62867  0.35621  1.0000
  H   H1888     1.0  0.72657  0.70934  0.30327  1.0000
  C   C1067     1.0  0.66562  0.74786  0.25647  1.0000
  S   S237      1.0  0.56678  0.52005  0.45397  1.0000
  H   H1889     1.0  0.78787  0.72347  0.34225  1.0000
  C   C1068     1.0  0.74876  0.73668  0.30050  1.0000
  H   H1890     1.0  0.86337  0.83035  0.34587  1.0000
  Fe  Fe120     1.0  0.62142  0.73996  0.31617  1.0000
  S   S238      1.0  0.60936  0.74583  0.34160  1.0000
  S   S239      1.0  0.67014  0.77563  0.30028  1.0000
  Fe  Fe121     1.0  0.59187  0.68420  0.34450  1.0000
  S   S240      1.0  0.60702  0.65875  0.36473  1.0000
  S   S241      1.0  0.60813  0.67873  0.31942  1.0000
  H   H1891     1.0  0.97920  0.96448  0.31204  1.0000
  Fe  Fe122     1.0  0.84856  0.90022  0.31312  1.0000
  S   S242      1.0  0.86238  0.85080  0.31144  1.0000
  S   S243      1.0  0.79799  0.89337  0.32749  1.0000
  Fe  Fe123     1.0  0.91478  0.88960  0.31660  1.0000
  S   S244      1.0  0.94003  0.87223  0.33532  1.0000
  H   H1892     1.0  0.81223  0.84266  0.27883  1.0000
  Fe  Fe124     1.0  0.91772  0.95231  0.29427  1.0000
  S   S245      1.0  0.55433  0.61440  0.44871  1.0000
  H   H1893     1.0  0.53383  0.87486  0.30658  1.0000
  Fe  Fe125     1.0  0.53618  0.55529  0.45867  1.0000
  C   C1069     1.0  0.77638  0.76320  0.24670  1.0000
  H   H1894     1.0  0.66621  0.80886  0.27052  1.0000
  S   S246      1.0  0.86504  0.91926  0.28755  1.0000
  C   C1070     1.0  0.56115  0.98285  0.46779  1.0000
  C   C1071     1.0  0.52372  0.65594  0.39334  1.0000
  H   H1895     1.0  0.53656  0.52580  0.30855  1.0000
  Fe  Fe126     1.0  0.88308  0.87280  0.28649  1.0000
  H   H1896     1.0  0.62354  0.80668  0.47442  1.0000
  C   C1072     1.0  0.60104  0.78266  0.47240  1.0000
  S   S247      1.0  0.56881  0.73342  0.31031  1.0000
  H   H1897     1.0  0.99349  0.72949  0.28998  1.0000
  C   C1073     1.0  0.61965  0.92338  0.47793  1.0000
  H   H1898     1.0  0.54524  0.59746  0.41601  1.0000
  C   C1074     1.0  0.57522  0.64960  0.38096  1.0000
  C   C1075     1.0  0.57359  0.62563  0.39376  1.0000
  C   C1076     1.0  0.54686  0.61665  0.40632  1.0000
  H   H1899     1.0  0.60208  0.92994  0.35236  1.0000
  H   H1900     1.0  0.98985  0.78174  0.26081  1.0000
  C   C1077     1.0  0.55077  0.66547  0.38097  1.0000
  C   C1078     1.0  0.86584  0.97000  0.24737  1.0000
  H   H1901     1.0  0.72224  0.68138  0.34057  1.0000
  H   H1902     1.0  0.76663  0.73448  0.29054  1.0000
  H   H1903     1.0  0.55267  0.68515  0.37147  1.0000
  C   C1079     1.0  0.70404  0.81056  0.30792  1.0000
  C   C1080     1.0  0.69999  0.82130  0.32307  1.0000
  C   C1081     1.0  0.72865  0.84753  0.32906  1.0000
  C   C1082     1.0  0.76126  0.86297  0.31986  1.0000
  C   C1083     1.0  0.76483  0.85303  0.30465  1.0000
  C   C1084     1.0  0.73638  0.82697  0.29868  1.0000
  H   H1904     1.0  0.67498  0.80922  0.33016  1.0000
  H   H1905     1.0  0.72572  0.85546  0.34084  1.0000
  H   H1906     1.0  0.78970  0.86580  0.29754  1.0000
  H   H1907     1.0  0.73965  0.81871  0.28700  1.0000
  S   S248      1.0  0.87474  0.83887  0.26579  1.0000
  H   H1908     1.0  0.56433  0.93334  0.30542  1.0000
  H   H1909     1.0  0.66201  0.64423  0.44621  1.0000
  C   C1085     1.0  0.54822  0.75568  0.46047  1.0000
  H   H1910     1.0  0.75903  0.65938  0.36574  1.0000
  C   C1086     1.0  0.74677  0.65573  0.35477  1.0000
  H   H1911     1.0  0.72248  0.72727  0.25128  1.0000
  C   C1087     1.0  0.57763  0.50296  0.47088  1.0000
  S   S249      1.0  0.93691  0.90695  0.29140  1.0000
  H   H1912     1.0  0.67297  0.92493  0.44373  1.0000
  S   S250      1.0  0.51746  0.95400  0.46686  1.0000
  H   H1913     1.0  0.52876  0.86659  0.36092  1.0000
  H   H1914     1.0  0.55711  0.95591  0.33900  1.0000
  H   H1915     1.0  0.50737  0.83356  0.31859  1.0000
  H   H1916     1.0  0.98559  0.78515  0.28116  1.0000
  N   N59       1.0  0.53957  0.89648  0.33795  1.0000
  Fe  Fe127     1.0  0.49978  0.59746  0.44319  1.0000
  C   C1088     1.0  0.80563  0.95562  0.27355  1.0000
  H   H1917     1.0  0.89193  0.77529  0.26325  1.0000
  H   H1918     1.0  0.67672  0.94389  0.47086  1.0000
  N   N60       1.0  0.75886  0.75838  0.34421  1.0000
  C   C1089     1.0  0.74465  0.75358  0.32867  1.0000
  C   C1090     1.0  0.73460  0.76631  0.35635  1.0000
  C   C1091     1.0  0.79313  0.79182  0.34186  1.0000
  C   C1092     1.0  0.76571  0.72533  0.34986  1.0000
  C   C1093     1.0  0.73483  0.68702  0.35140  1.0000
  C   C1094     1.0  0.80963  0.80577  0.35698  1.0000
  C   C1095     1.0  0.69492  0.74598  0.35585  1.0000
  C   C1096     1.0  0.67436  0.74726  0.37137  1.0000
  C   C1097     1.0  0.84461  0.83867  0.35305  1.0000
  H   H1919     1.0  0.73963  0.77833  0.32517  1.0000
  H   H1920     1.0  0.71893  0.73013  0.32953  1.0000
  H   H1921     1.0  0.74015  0.76084  0.36836  1.0000
  H   H1922     1.0  0.73944  0.79640  0.35517  1.0000
  H   H1923     1.0  0.79015  0.81571  0.33571  1.0000
  H   H1924     1.0  0.77434  0.72893  0.36167  1.0000
  H   H1925     1.0  0.71538  0.68540  0.36144  1.0000
  H   H1926     1.0  0.81430  0.78374  0.36356  1.0000
  H   H1927     1.0  0.79271  0.81521  0.36483  1.0000
  H   H1928     1.0  0.68713  0.75987  0.34635  1.0000
  H   H1929     1.0  0.68680  0.71658  0.35345  1.0000
  H   H1930     1.0  0.67804  0.72951  0.38079  1.0000
  H   H1931     1.0  0.68273  0.77611  0.37480  1.0000
  H   H1932     1.0  0.64627  0.73646  0.37017  1.0000
  H   H1933     1.0  0.85553  0.84858  0.36402  1.0000
  H   H1934     1.0  0.84159  0.86205  0.34659  1.0000
  H   H1935     1.0  0.71848  0.50397  0.44757  1.0000
  H   H1936     1.0  0.58864  0.94200  0.32959  1.0000
  C   C1098     1.0  0.98648  0.85971  0.31375  1.0000
  Fe  Fe128     1.0  0.53783  0.84308  0.45040  1.0000
  C   C1099     1.0  0.72683  0.78474  0.24695  1.0000
  S   S251      1.0  0.58369  0.83191  0.45625  1.0000
  H   H1937     1.0  0.61488  0.94735  0.47307  1.0000
  S   S252      1.0  0.54898  0.89663  0.43630  1.0000
  S   S253      1.0  0.49602  0.80847  0.43690  1.0000
  H   H1938     1.0  0.73048  0.79062  0.25933  1.0000
  H   H1939     1.0  0.55344  0.91661  0.48480  1.0000
  H   H1940     1.0  0.81215  0.93162  0.27117  1.0000
  Fe  Fe129     1.0  0.55535  0.73359  0.33620  1.0000
  C   C1100     1.0  0.56038  0.93580  0.33088  1.0000
  H   H1941     1.0  0.77744  0.72630  0.31783  1.0000
  H   H1942     1.0  0.76559  0.65500  0.34488  1.0000
  N   N61       1.0  0.57450  0.77605  0.39845  1.0000
  C   C1101     1.0  0.60349  0.78126  0.38548  1.0000
  C   C1102     1.0  0.56981  0.74462  0.41047  1.0000
  H   H1943     1.0  0.86072  0.94752  0.25667  1.0000
  C   C1103     1.0  0.57998  0.81106  0.40646  1.0000
  C   C1104     1.0  0.61581  0.83072  0.41222  1.0000
  C   C1105     1.0  0.61043  0.81257  0.37232  1.0000
  C   C1106     1.0  0.97738  0.98146  0.33539  1.0000
  C   C1107     1.0  0.60265  0.73799  0.41347  1.0000
  C   C1108     1.0  0.59469  0.70936  0.42742  1.0000
  C   C1109     1.0  0.62149  0.86998  0.41625  1.0000
  C   C1110     1.0  0.64724  0.82635  0.36359  1.0000
  C   C1111     1.0  0.68091  0.86487  0.26126  1.0000
  H   H1944     1.0  0.59781  0.75491  0.37973  1.0000
  H   H1945     1.0  0.62830  0.78649  0.39015  1.0000
  H   H1946     1.0  0.55716  0.74798  0.42201  1.0000
  H   H1947     1.0  0.55154  0.71770  0.40707  1.0000
  C   C1112     1.0  0.55156  0.86943  0.32970  1.0000
  C   C1113     1.0  0.56757  0.71620  0.47607  1.0000
  H   H1948     1.0  0.57478  0.83129  0.39888  1.0000
  H   H1949     1.0  0.56029  0.80529  0.41697  1.0000
  H   H1950     1.0  0.63777  0.83364  0.40332  1.0000
  H   H1951     1.0  0.61706  0.81503  0.42299  1.0000
  H   H1952     1.0  0.65308  0.89469  0.47025  1.0000
  H   H1953     1.0  0.60747  0.83708  0.37696  1.0000
  H   H1954     1.0  0.73876  0.75752  0.29680  1.0000
  H   H1955     1.0  0.71218  0.83468  0.26554  1.0000
  H   H1956     1.0  0.61191  0.72694  0.40304  1.0000
  H   H1957     1.0  0.62394  0.76384  0.41591  1.0000
  H   H1958     1.0  0.61791  0.70330  0.42875  1.0000
  H   H1959     1.0  0.58763  0.72009  0.43841  1.0000
  H   H1960     1.0  0.57294  0.68308  0.42562  1.0000
  H   H1961     1.0  0.60021  0.86930  0.42509  1.0000
  H   H1962     1.0  0.64639  0.88269  0.42119  1.0000
  H   H1963     1.0  0.62249  0.88753  0.40563  1.0000
  H   H1964     1.0  0.65246  0.80312  0.35874  1.0000
  H   H1965     1.0  0.65033  0.84690  0.35370  1.0000
  H   H1966     1.0  0.66669  0.83997  0.37157  1.0000
  H   H1967     1.0  0.52838  0.51767  0.28858  1.0000
  C   C1114     1.0  0.65417  0.58602  0.44971  1.0000
  H   H1968     1.0  0.68287  0.87547  0.27306  1.0000
  N   N62       1.0  0.94320  0.78899  0.27006  1.0000
  C   C1115     1.0  0.91274  0.76442  0.26231  1.0000
  C   C1116     1.0  0.92969  0.79626  0.28598  1.0000
  C   C1117     1.0  0.81844  0.98505  0.25924  1.0000
  C   C1118     1.0  0.97026  0.77309  0.27145  1.0000
  C   C1119     1.0  0.95712  0.73014  0.27379  1.0000
  H   H1969     1.0  0.96104  0.95290  0.34069  1.0000
  C   C1120     1.0  0.68652  0.82874  0.26163  1.0000
  C   C1121     1.0  0.91069  0.76222  0.29809  1.0000
  C   C1122     1.0  0.89338  0.77259  0.31256  1.0000
  H   H1970     1.0  0.70101  0.88628  0.25269  1.0000
  H   H1971     1.0  0.62638  0.90963  0.44706  1.0000
  H   H1972     1.0  0.75779  0.91946  0.28783  1.0000
  H   H1973     1.0  0.65477  0.86012  0.25806  1.0000
  H   H1974     1.0  0.90028  0.73617  0.26840  1.0000
  H   H1975     1.0  0.95129  0.81494  0.29184  1.0000
  H   H1976     1.0  0.91218  0.81099  0.28467  1.0000
  H   H1977     1.0  0.49535  0.54178  0.39643  1.0000
  C   C1123     1.0  0.54160  0.76543  0.39087  1.0000
  H   H1978     1.0  0.52510  0.93789  0.31375  1.0000
  H   H1979     1.0  0.52235  0.69584  0.46404  1.0000
  C   C1124     1.0  0.76617  0.94061  0.27763  1.0000
  H   H1980     1.0  0.80261  0.59131  0.46729  1.0000
  H   H1981     1.0  0.97932  0.87507  0.30513  1.0000
  H   H1982     1.0  0.66779  0.72097  0.25465  1.0000
  S   S254      1.0  0.53661  0.67221  0.34121  1.0000
  H   H1983     1.0  0.57959  0.97516  0.44449  1.0000
  H   H1984     1.0  0.89005  0.73948  0.29326  1.0000
  H   H1985     1.0  0.92978  0.75194  0.30213  1.0000
  H   H1986     1.0  0.87206  0.78029  0.30938  1.0000
  H   H1987     1.0  0.88218  0.74852  0.32154  1.0000
  H   H1988     1.0  0.91254  0.79618  0.31776  1.0000
  C   C1125     1.0  0.54398  0.72011  0.46654  1.0000
  H   H1989     1.0  0.96930  0.83135  0.35265  1.0000
  Fe  Fe130     1.0  0.55428  0.67246  0.31582  1.0000
  H   H1990     1.0  0.94012  0.83663  0.25776  1.0000
  H   H1991     1.0  0.81293  0.78606  0.33411  1.0000
  H   H1992     1.0  0.97951  0.86600  0.27757  1.0000
  H   H1993     1.0  0.93421  0.71757  0.28279  1.0000
  H   H1994     1.0  0.54359  0.78769  0.38193  1.0000
  H   H1995     1.0  0.59249  0.61335  0.39381  1.0000
  C   C1126     1.0  0.68939  0.53496  0.48951  1.0000
  H   H1996     1.0  0.65387  0.95796  0.44772  1.0000
  H   H1997     1.0  0.57703  0.70572  0.27087  1.0000
  C   C1127     1.0  0.73670  0.57208  0.45875  1.0000
  C   C1128     1.0  0.57677  0.78694  0.46350  1.0000
  C   C1129     1.0  0.69252  0.59305  0.45144  1.0000
  H   H1998     1.0  0.63860  0.58271  0.46129  1.0000
  N   N63       1.0  0.69006  0.77764  0.24422  1.0000
  H   H1999     1.0  0.52977  0.75894  0.45336  1.0000
  H   H2000     1.0  0.97515  0.68753  0.28031  1.0000
  C   C1130     1.0  0.98105  0.83533  0.34057  1.0000
  C   C1131     1.0  0.95999  0.82572  0.26015  1.0000
  C   C1132     1.0  0.52172  0.63154  0.40602  1.0000
  H   H2001     1.0  0.62150  0.76530  0.25920  1.0000
  H   H2002     1.0  0.74643  0.57369  0.44608  1.0000
  H   H2003     1.0  0.77276  0.86737  0.26758  1.0000
  H   H2004     1.0  0.81397  0.64051  0.46755  1.0000
  C   C1133     1.0  0.53458  0.85339  0.31500  1.0000
  H   H2005     1.0  0.70685  0.59818  0.43937  1.0000
  H   H2006     1.0  0.74265  0.54978  0.46442  1.0000
  H   H2007     1.0  0.59225  0.88097  0.35239  1.0000
  H   H2008     1.0  0.81782  0.53506  0.46912  1.0000
  C   C1134     1.0  0.54584  0.89446  0.35488  1.0000
  C   C1135     1.0  0.65198  0.61843  0.44013  1.0000
  C   C1136     1.0  0.57069  0.98820  0.31027  1.0000
  H   H2009     1.0  0.57974  0.92147  0.38078  1.0000
  C   C1137     1.0  0.98530  0.71828  0.27872  1.0000
  H   H2010     1.0  0.64171  0.56079  0.44357  1.0000
  H   H2011     1.0  0.55558  0.81063  0.31445  1.0000
  Fe  Fe131     1.0  0.53257  0.62414  0.47212  1.0000
  H   H2012     1.0  0.66690  0.62295  0.42828  1.0000
  C   C1138     1.0  0.68358  0.56167  0.47755  1.0000
  C   C1139     1.0  0.81565  0.85057  0.26645  1.0000
  C   C1140     1.0  0.55380  0.83239  0.30637  1.0000
  H   H2013     1.0  0.50859  0.78424  0.40646  1.0000
  H   H2014     1.0  0.75783  0.96328  0.28072  1.0000
  C   C1141     1.0  0.58663  0.98858  0.45507  1.0000
  H   H2015     1.0  0.69383  0.59001  0.48167  1.0000
  C   C1142     1.0  0.97123  0.85465  0.32935  1.0000
  H   H2016     1.0  0.59176  0.80209  0.36367  1.0000
  H   H2017     1.0  0.75321  0.92718  0.26757  1.0000
  H   H2018     1.0  0.61346  0.71967  0.28185  1.0000
  H   H2019     1.0  0.79109  0.77454  0.31105  1.0000
  H   H2020     1.0  0.58042  0.85174  0.30131  1.0000
  H   H2021     1.0  0.67322  0.75436  0.26836  1.0000
  S   S255      1.0  0.89973  0.93786  0.32006  1.0000
  C   C1143     1.0  0.98955  0.85701  0.26682  1.0000
  C   C1144     1.0  0.65118  0.92909  0.45059  1.0000
  H   H2022     1.0  0.53757  0.74039  0.38432  1.0000
  H   H2023     1.0  0.51737  0.55225  0.29837  1.0000
  C   C1145     1.0  0.79323  0.86398  0.26004  1.0000
  H   H2024     1.0  0.87559  0.53243  0.46445  1.0000
  H   H2025     1.0  0.94961  0.71784  0.26265  1.0000
  C   C1146     1.0  0.84328  0.84811  0.25693  1.0000
  C   C1147     1.0  0.82280  0.51385  0.47553  1.0000
  H   H2026     1.0  0.65969  0.81052  0.24132  1.0000
  H   H2027     1.0  0.70313  0.61974  0.45690  1.0000
  C   C1148     1.0  0.92098  0.76041  0.24468  1.0000
  H   H2028     1.0  0.81735  0.96766  0.28407  1.0000
  N   N64       1.0  0.69812  0.56274  0.46068  1.0000
  C   C1149     1.0  0.76821  0.74816  0.31473  1.0000
  S   S256      1.0  0.52468  0.76268  0.34832  1.0000
  H   H2029     1.0  0.61457  0.90605  0.37666  1.0000
  H   H2030     1.0  0.60741  0.68381  0.26854  1.0000
  C   C1150     1.0  0.60490  0.71050  0.27039  1.0000
  H   H2031     1.0  0.53949  0.81865  0.29669  1.0000
  H   H2032     1.0  0.54635  0.84450  0.33787  1.0000
  H   H2033     1.0  0.65497  0.55320  0.47868  1.0000
  C   C1151     1.0  0.55317  0.94627  0.31447  1.0000
  H   H2034     1.0  0.80672  0.61912  0.44937  1.0000
  H   H2035     1.0  0.59751  0.89842  0.47529  1.0000
  H   H2036     1.0  0.58025  0.88206  0.32634  1.0000
  C   C1152     1.0  0.68484  0.81336  0.24528  1.0000
  H   H2037     1.0  0.67921  0.53125  0.44097  1.0000
  H   H2038     1.0  0.57027  0.87255  0.38066  1.0000
  S   S257      1.0  0.56202  0.67285  0.48487  1.0000
  C   C1153     1.0  0.75964  0.60841  0.46543  1.0000
  C   C1154     1.0  0.58382  0.90200  0.35755  1.0000
  H   H2039     1.0  0.53855  0.91471  0.36145  1.0000
  C   C1155     1.0  0.67912  0.52644  0.45383  1.0000
  H   H2040     1.0  0.65127  0.51440  0.45889  1.0000
  H   H2041     1.0  0.62442  0.61200  0.43869  1.0000
  H   H2042     1.0  0.75685  0.63295  0.46000  1.0000
  H   H2043     1.0  0.61670  0.72977  0.24598  1.0000
  C   C1156     1.0  0.79805  0.61515  0.46219  1.0000
  S   S258      1.0  0.50114  0.85118  0.46908  1.0000
  C   C1157     1.0  0.58728  0.90046  0.37500  1.0000
  H   H2044     1.0  0.49998  0.93970  0.34265  1.0000
  C   C1158     1.0  0.62646  0.74007  0.25709  1.0000
  C   C1159     1.0  0.65220  0.92237  0.46811  1.0000
  H   H2045     1.0  0.71664  0.53775  0.48825  1.0000
  C   C1160     1.0  0.59603  0.74756  0.47898  1.0000
  H   H2046     1.0  0.75275  0.60672  0.47832  1.0000
  C   C1161     1.0  0.51830  0.52447  0.29995  1.0000
  H   H2047     1.0  0.67208  0.50590  0.48806  1.0000
  S   S259      1.0  0.51939  0.56666  0.48273  1.0000
  C   C1162     1.0  0.79840  0.87491  0.24405  1.0000
  C   C1163     1.0  0.50795  0.75782  0.40212  1.0000
  H   H2048     1.0  0.77953  0.77043  0.25896  1.0000
  Fe  Fe132     1.0  0.50923  0.90257  0.45411  1.0000
  H   H2049     1.0  0.61447  0.74462  0.48621  1.0000
  C   C1164     1.0  0.50100  0.88503  0.33790  1.0000
  H   H2050     1.0  0.92211  0.99029  0.24891  1.0000
  C   C1165     1.0  0.73886  0.75278  0.24362  1.0000
  C   C1166     1.0  0.85549  0.51238  0.47288  1.0000
  Fe  Fe133     1.0  0.50357  0.86272  0.42429  1.0000
  S   S260      1.0  0.51907  0.63087  0.30149  1.0000
  H   H2051     1.0  0.80383  0.97241  0.24939  1.0000
  H   H2052     1.0  0.51385  0.59131  0.33136  1.0000
  H   H2053     1.0  0.50347  0.73772  0.31820  1.0000
  H   H2054     1.0  0.50450  0.66775  0.39317  1.0000
  H   H2055     1.0  0.57514  0.54624  0.48485  1.0000
  H   H2056     1.0  0.50466  0.73804  0.41232  1.0000
  H   H2057     1.0  0.98568  0.90130  0.25222  1.0000
  C   C1167     1.0  0.57913  0.52079  0.48467  1.0000
  H   H2058     1.0  0.78396  0.73949  0.24475  1.0000
  H   H2059     1.0  0.97172  0.82202  0.24847  1.0000
  H   H2060     1.0  0.88822  0.70154  0.24479  1.0000
  H   H2061     1.0  0.94507  0.75551  0.24253  1.0000
  H   H2062     1.0  0.90378  0.92547  0.24249  1.0000
  C   C1168     1.0  0.69345  0.49576  0.45534  1.0000
  H   H2063     1.0  0.59411  0.84893  0.48974  1.0000
  C   C1169     1.0  0.84719  0.85652  0.24073  1.0000
  H   H2064     1.0  0.65095  0.98451  0.48977  1.0000
  S   S261      1.0  0.75707  0.49300  0.49016  1.0000
  H   H2065     1.0  0.86673  0.73247  0.24094  1.0000
  C   C1170     1.0  0.60002  0.85430  0.50187  1.0000
  H   H2066     1.0  0.67596  0.95917  0.49450  1.0000
  Fe  Fe134     1.0  0.86431  0.54580  0.64646  1.0000
  S   S262      1.0  0.81976  0.54586  0.63422  1.0000
  S   S263      1.0  0.90792  0.59596  0.65341  1.0000
  H   H2067     1.0  0.98467  0.63432  0.61228  1.0000
  H   H2068     1.0  0.59193  0.79682  0.50712  1.0000
  C   C1171     1.0  0.95776  0.99072  0.68571  1.0000
  S   S264      1.0  0.97547  0.88496  0.68383  1.0000
  H   H2069     1.0  0.89133  0.53762  0.59598  1.0000
  H   H2070     1.0  0.94995  0.62332  0.60029  1.0000
  H   H2071     1.0  0.80499  0.78867  0.69479  1.0000
  H   H2072     1.0  0.54187  0.55267  0.51607  1.0000
  C   C1172     1.0  0.50177  0.49926  0.52585  1.0000
  Fe  Fe135     1.0  0.92890  0.83240  0.69125  1.0000
  S   S265      1.0  0.90415  0.83412  0.66956  1.0000
  S   S266      1.0  0.90202  0.82145  0.71598  1.0000
  Fe  Fe136     1.0  0.93321  0.80051  0.66010  1.0000
  S   S267      1.0  0.90534  0.75521  0.64501  1.0000
  Fe  Fe137     1.0  0.95353  0.88327  0.66109  1.0000
  S   S268      1.0  0.95651  0.93472  0.64749  1.0000
  S   S269      1.0  0.95433  0.79506  0.68252  1.0000
  C   C1173     1.0  0.85637  0.49276  0.58464  1.0000
  C   C1174     1.0  0.89397  0.85988  0.72170  1.0000
  H   H2073     1.0  0.95753  0.79648  0.58885  1.0000
  C   C1175     1.0  0.89635  0.88776  0.71050  1.0000
  H   H2074     1.0  0.80205  0.96113  0.65615  1.0000
  H   H2075     1.0  0.90293  0.88539  0.69825  1.0000
  H   H2076     1.0  0.79417  0.52158  0.57367  1.0000
  H   H2077     1.0  0.83654  0.90224  0.63796  1.0000
  H   H2078     1.0  0.58392  0.91815  0.51603  1.0000
  H   H2079     1.0  0.93883  0.93373  0.68044  1.0000
  H   H2080     1.0  0.80720  0.98142  0.67475  1.0000
  C   C1176     1.0  0.90310  0.63845  0.65252  1.0000
  C   C1177     1.0  0.88430  0.64640  0.64148  1.0000
  C   C1178     1.0  0.88421  0.68203  0.63967  1.0000
  C   C1179     1.0  0.90240  0.70970  0.64905  1.0000
  C   C1180     1.0  0.92006  0.70134  0.66051  1.0000
  C   C1181     1.0  0.92085  0.66595  0.66208  1.0000
  H   H2081     1.0  0.87094  0.62553  0.63394  1.0000
  H   H2082     1.0  0.87052  0.68838  0.63078  1.0000
  H   H2083     1.0  0.93396  0.72243  0.66782  1.0000
  H   H2084     1.0  0.93550  0.65992  0.67060  1.0000
  H   H2085     1.0  0.94085  0.62469  0.62109  1.0000
  Fe  Fe138     1.0  0.82591  0.49906  0.62187  1.0000
  H   H2086     1.0  0.84451  0.59219  0.51502  1.0000
  H   H2087     1.0  0.74327  0.55746  0.64116  1.0000
  H   H2088     1.0  0.95242  0.81851  0.73713  1.0000
  H   H2089     1.0  0.49766  0.88828  0.50158  1.0000
  C   C1182     1.0  0.79652  0.49377  0.54632  1.0000
  C   C1183     1.0  0.88936  0.91819  0.71514  1.0000
  H   H2090     1.0  0.83066  0.92777  0.66372  1.0000
  H   H2091     1.0  0.82323  0.58761  0.54841  1.0000
  C   C1184     1.0  0.58743  0.92654  0.50324  1.0000
  H   H2092     1.0  0.69500  0.51865  0.60752  1.0000
  H   H2093     1.0  0.54926  0.95199  0.73505  1.0000
  H   H2094     1.0  0.81042  0.89239  0.72670  1.0000
  S   S270      1.0  0.73829  0.50245  0.66643  1.0000
  H   H2095     1.0  0.71834  0.56567  0.62682  1.0000
  H   H2096     1.0  0.91527  0.57560  0.51579  1.0000
  C   C1185     1.0  0.61224  0.82493  0.50786  1.0000
  C   C1186     1.0  0.97129  0.75369  0.61217  1.0000
  C   C1187     1.0  0.85383  0.90258  0.64690  1.0000
  H   H2097     1.0  0.86029  0.97104  0.63787  1.0000
  H   H2098     1.0  0.94625  0.71669  0.69658  1.0000
  H   H2099     1.0  0.80069  0.86102  0.70501  1.0000
  C   C1188     1.0  0.81579  0.58100  0.51763  1.0000
  H   H2100     1.0  0.79269  0.78865  0.72355  1.0000
  H   H2101     1.0  0.80843  0.59898  0.52558  1.0000
  H   H2102     1.0  0.57591  0.85038  0.50960  1.0000
  C   C1189     1.0  0.90788  0.54673  0.52088  1.0000
  C   C1190     1.0  0.77579  0.92043  0.72587  1.0000
  H   H2103     1.0  0.77828  0.57479  0.57962  1.0000
  H   H2104     1.0  0.90748  0.75815  0.73953  1.0000
  H   H2105     1.0  0.73918  0.49910  0.63019  1.0000
  C   C1191     1.0  0.73528  0.78359  0.73895  1.0000
  H   H2106     1.0  0.87342  0.93125  0.66667  1.0000
  C   C1192     1.0  0.98004  0.79595  0.61055  1.0000
  H   H2107     1.0  0.96355  0.90183  0.73544  1.0000
  H   H2108     1.0  0.77218  0.53058  0.52727  1.0000
  C   C1193     1.0  0.73674  0.55267  0.62904  1.0000
  H   H2109     1.0  0.54950  0.87475  0.49517  1.0000
  H   H2110     1.0  0.92048  0.54727  0.53163  1.0000
  C   C1194     1.0  0.96034  0.63786  0.61062  1.0000
  C   C1195     1.0  0.65059  0.96123  0.49771  1.0000
  H   H2111     1.0  0.96150  0.83497  0.60038  1.0000
  H   H2112     1.0  0.51171  0.78499  0.49152  1.0000
  H   H2113     1.0  0.94764  0.98387  0.69792  1.0000
  H   H2114     1.0  0.64825  0.95195  0.52352  1.0000
  C   C1196     1.0  0.65114  0.97430  0.51455  1.0000
  H   H2115     1.0  0.94774  0.76507  0.71598  1.0000
  H   H2116     1.0  0.66518  0.73064  0.71985  1.0000
  H   H2117     1.0  0.63036  0.89698  0.51522  1.0000
  N   N65       1.0  0.98506  0.78791  0.73209  1.0000
  H   H2118     1.0  0.70633  0.79504  0.72075  1.0000
  C   C1197     1.0  0.91507  0.50151  0.56351  1.0000
  H   H2119     1.0  0.81371  0.83042  0.68254  1.0000
  H   H2120     1.0  0.58893  0.95549  0.50229  1.0000
  H   H2121     1.0  0.83926  0.55259  0.56963  1.0000
  H   H2122     1.0  0.65336  0.54029  0.50845  1.0000
  H   H2123     1.0  0.98583  0.69095  0.59719  1.0000
  H   H2124     1.0  0.65325  0.89473  0.49722  1.0000
  C   C1198     1.0  0.71365  0.77259  0.72511  1.0000
  H   H2125     1.0  0.96829  0.74418  0.60020  1.0000
  C   C1199     1.0  0.80149  0.58387  0.50229  1.0000
  C   C1200     1.0  0.96595  0.75711  0.72230  1.0000
  H   H2126     1.0  0.97644  0.75261  0.64192  1.0000
  C   C1201     1.0  0.85692  0.93335  0.65771  1.0000
  C   C1202     1.0  0.88033  0.92097  0.73100  1.0000
  H   H2127     1.0  0.89947  0.99054  0.67557  1.0000
  H   H2128     1.0  0.86285  0.49794  0.52900  1.0000
  H   H2129     1.0  0.80876  0.56989  0.59183  1.0000
  C   C1203     1.0  0.95268  0.96223  0.67580  1.0000
  C   C1204     1.0  0.55322  0.90383  0.49655  1.0000
  C   C1205     1.0  0.88440  0.86236  0.73751  1.0000
  H   H2130     1.0  0.98915  0.82783  0.71309  1.0000
  H   H2131     1.0  0.76469  0.81867  0.70340  1.0000
  H   H2132     1.0  0.92794  0.78984  0.60667  1.0000
  C   C1206     1.0  0.86844  0.52684  0.52460  1.0000
  H   H2133     1.0  0.84277  0.87524  0.65390  1.0000
  H   H2134     1.0  0.74572  0.84968  0.72214  1.0000
  H   H2135     1.0  0.66339  0.74445  0.73953  1.0000
  H   H2136     1.0  0.85767  0.52684  0.51341  1.0000
  H   H2137     1.0  0.55846  0.91316  0.72886  1.0000
  C   C1207     1.0  0.98879  0.74589  0.70992  1.0000
  H   H2138     1.0  0.94324  0.54536  0.57731  1.0000
  C   C1208     1.0  0.78569  0.89055  0.73322  1.0000
  H   H2139     1.0  0.79700  0.94811  0.72633  1.0000
  C   C1209     1.0  0.54622  0.92331  0.73866  1.0000
  C   C1210     1.0  0.85383  0.54545  0.53736  1.0000
  H   H2140     1.0  0.76108  0.56630  0.62079  1.0000
  C   C1211     1.0  0.79142  0.83035  0.70649  1.0000
  C   C1212     1.0  0.96668  0.71158  0.70223  1.0000
  H   H2141     1.0  0.84171  0.83085  0.69703  1.0000
  C   C1213     1.0  0.88885  0.51980  0.58651  1.0000
  H   H2142     1.0  0.86734  0.57606  0.53482  1.0000
  C   C1214     1.0  0.58595  0.50572  0.49833  1.0000
  H   H2143     1.0  0.77204  0.91604  0.71342  1.0000
  H   H2144     1.0  0.68354  0.52225  0.51466  1.0000
  H   H2145     1.0  0.86312  0.53932  0.54835  1.0000
  C   C1215     1.0  0.79364  0.81739  0.72349  1.0000
  C   C1216     1.0  0.68060  0.54274  0.50632  1.0000
  H   H2146     1.0  0.81077  0.56907  0.49339  1.0000
  H   H2147     1.0  0.75164  0.92017  0.73250  1.0000
  H   H2148     1.0  0.94920  0.73141  0.72974  1.0000
  H   H2149     1.0  0.72234  0.51248  0.57830  1.0000
  C   C1217     1.0  0.72038  0.51098  0.62731  1.0000
  C   C1218     1.0  0.87373  0.97229  0.64844  1.0000
  H   H2150     1.0  0.73653  0.51822  0.60259  1.0000
  H   H2151     1.0  0.62986  0.98380  0.51755  1.0000
  H   H2152     1.0  0.77933  0.55450  0.55205  1.0000
  C   C1219     1.0  0.80101  0.54029  0.52499  1.0000
  H   H2153     1.0  0.61694  0.82807  0.52029  1.0000
  H   H2154     1.0  0.69838  0.57096  0.50869  1.0000
  C   C1220     1.0  0.80687  0.55769  0.55175  1.0000
  H   H2155     1.0  0.80545  0.52323  0.51574  1.0000
  H   H2156     1.0  0.87984  0.90657  0.64090  1.0000
  H   H2157     1.0  0.94217  0.68059  0.60604  1.0000
  C   C1221     1.0  0.81435  0.81936  0.69452  1.0000
  H   H2158     1.0  0.77262  0.57174  0.50405  1.0000
  N   N66       1.0  0.81491  0.53392  0.53982  1.0000
  C   C1222     1.0  0.80529  0.57686  0.57964  1.0000
  H   H2159     1.0  0.63649  0.82719  0.50064  1.0000
  H   H2160     1.0  0.91771  0.53185  0.51218  1.0000
  H   H2161     1.0  0.89059  0.93935  0.70641  1.0000
  C   C1223     1.0  0.62774  0.89385  0.50260  1.0000
  C   C1224     1.0  0.81231  0.54989  0.56888  1.0000
  C   C1225     1.0  0.96457  0.97063  0.65983  1.0000
  H   H2162     1.0  0.82383  0.60582  0.57588  1.0000
  H   H2163     1.0  0.98048  0.95591  0.71220  1.0000
  H   H2164     1.0  0.49990  0.55372  0.52224  1.0000
  C   C1226     1.0  0.67993  0.73847  0.73004  1.0000
  H   H2165     1.0  0.71605  0.49445  0.55211  1.0000
  H   H2166     1.0  0.52701  0.55044  0.53662  1.0000
  C   C1227     1.0  0.71156  0.50370  0.61039  1.0000
  H   H2167     1.0  0.82051  0.83473  0.72571  1.0000
  H   H2168     1.0  0.58611  0.51906  0.50910  1.0000
  H   H2169     1.0  0.72847  0.76508  0.71540  1.0000
  H   H2170     1.0  0.51327  0.49756  0.50116  1.0000
  C   C1228     1.0  0.75661  0.85121  0.73338  1.0000
  C   C1229     1.0  0.91813  0.52431  0.57588  1.0000
  N   N67       1.0  0.62077  0.92540  0.49536  1.0000
  H   H2171     1.0  0.95414  0.68727  0.71106  1.0000
  Fe  Fe139     1.0  0.78636  0.50112  0.65299  1.0000
  S   S271      1.0  0.83045  0.50443  0.66614  1.0000
  C   C1230     1.0  0.51864  0.54162  0.52510  1.0000
  H   H2172     1.0  0.85394  0.97393  0.67993  1.0000
  H   H2173     1.0  0.97709  0.80598  0.62226  1.0000
  C   C1231     1.0  0.96720  0.67896  0.60800  1.0000
  H   H2174     1.0  0.95850  0.69157  0.63178  1.0000
  S   S272      1.0  0.87346  0.50265  0.63232  1.0000
  H   H2175     1.0  0.90049  0.97505  0.64385  1.0000
  H   H2176     1.0  0.68556  0.71452  0.73418  1.0000
  H   H2177     1.0  0.69686  0.49878  0.63609  1.0000
  C   C1232     1.0  0.80862  0.98731  0.66194  1.0000
  S   S273      1.0  0.95220  0.50710  0.55057  1.0000
  S   S274      1.0  0.97351  0.49547  0.50609  1.0000
  C   C1233     1.0  0.98090  0.70025  0.62235  1.0000
  H   H2178     1.0  0.75478  0.98109  0.66433  1.0000
  H   H2179     1.0  0.52346  0.93235  0.50814  1.0000
  H   H2180     1.0  0.81083  0.61346  0.49778  1.0000
  C   C1234     1.0  0.95518  0.80469  0.60098  1.0000
  H   H2181     1.0  0.94500  0.73994  0.61904  1.0000
  S   S275      1.0  0.98097  0.85010  0.64988  1.0000
  H   H2182     1.0  0.51906  0.88962  0.51877  1.0000
  N   N68       1.0  0.76733  0.81935  0.73640  1.0000
  C   C1235     1.0  0.52151  0.90357  0.50697  1.0000
  H   H2183     1.0  0.98336  0.70481  0.69309  1.0000
  S   S276      1.0  0.87226  0.95949  0.73660  1.0000
  N   N69       1.0  0.57661  0.87980  0.77297  1.0000
  Fe  Fe140     1.0  0.84379  0.95254  0.76088  1.0000
  S   S277      1.0  0.81611  0.89879  0.77582  1.0000
  H   H2184     1.0  0.95578  0.96383  0.85472  1.0000
  C   C1236     1.0  0.97460  0.91741  0.74546  1.0000
  S   S278      1.0  0.79047  0.94621  0.80119  1.0000
  S   S279      1.0  0.95608  0.83332  0.79432  1.0000
  Fe  Fe141     1.0  0.83664  0.93196  0.79580  1.0000
  S   S280      1.0  0.85894  0.91489  0.81578  1.0000
  Fe  Fe142     1.0  0.77235  0.91754  0.77975  1.0000
  S   S281      1.0  0.71930  0.87542  0.77655  1.0000
  H   H2185     1.0  0.87826  0.75385  0.76591  1.0000
  C   C1237     1.0  0.98035  0.50018  0.97896  1.0000
  H   H2186     1.0  0.92685  0.73955  0.75334  1.0000
  H   H2187     1.0  0.57598  0.68299  0.80862  1.0000
  C   C1238     1.0  0.56559  0.81378  0.76363  1.0000
  Fe  Fe143     1.0  0.54867  0.80450  0.83237  1.0000
  H   H2188     1.0  0.51166  0.91446  0.97029  1.0000
  S   S282      1.0  0.60222  0.84842  0.83367  1.0000
  H   H2189     1.0  0.80987  0.78647  0.74851  1.0000
  C   C1239     1.0  0.93307  0.51556  0.97203  1.0000
  H   H2190     1.0  0.54499  0.64225  0.97510  1.0000
  C   C1240     1.0  0.59725  0.70875  0.80286  1.0000
  S   S283      1.0  0.53611  0.77131  0.81165  1.0000
  S   S284      1.0  0.79846  0.96909  0.76331  1.0000
  H   H2191     1.0  0.59943  0.69729  0.83438  1.0000
  C   C1241     1.0  0.65382  0.72761  0.85150  1.0000
  C   C1242     1.0  0.56344  0.92331  0.75344  1.0000
  C   C1243     1.0  0.51980  0.63932  0.98170  1.0000
  C   C1244     1.0  0.55914  0.88349  0.75891  1.0000
  H   H2192     1.0  0.88250  0.84082  0.74617  1.0000
  C   C1245     1.0  0.52702  0.97361  0.91733  1.0000
  H   H2193     1.0  0.60599  0.80784  0.88127  1.0000
  H   H2194     1.0  0.79778  0.81028  0.78156  1.0000
  C   C1246     1.0  0.68679  0.86912  0.79224  1.0000
  C   C1247     1.0  0.65494  0.83876  0.79300  1.0000
  C   C1248     1.0  0.62903  0.83235  0.80568  1.0000
  C   C1249     1.0  0.63447  0.85631  0.81761  1.0000
  C   C1250     1.0  0.66629  0.88685  0.81680  1.0000
  C   C1251     1.0  0.69237  0.89331  0.80412  1.0000
  H   H2195     1.0  0.65051  0.81980  0.78391  1.0000
  H   H2196     1.0  0.60510  0.80848  0.80629  1.0000
  H   H2197     1.0  0.67081  0.90562  0.82598  1.0000
  H   H2198     1.0  0.71666  0.91710  0.80355  1.0000
  C   C1252     1.0  0.88496  0.89100  0.81007  1.0000
  C   C1253     1.0  0.87875  0.86976  0.79722  1.0000
  C   C1254     1.0  0.91224  0.89325  0.81850  1.0000
  H   H2199     1.0  0.85732  0.86738  0.79091  1.0000
  H   H2200     1.0  0.91621  0.90848  0.82879  1.0000
  S   S285      1.0  0.51158  0.66734  0.82963  1.0000
  H   H2201     1.0  0.68436  0.79893  0.84129  1.0000
  H   H2202     1.0  0.97523  0.74415  0.76166  1.0000
  H   H2203     1.0  0.87152  0.89535  0.75447  1.0000
  H   H2204     1.0  0.62502  0.89390  0.74542  1.0000
  H   H2205     1.0  0.63771  0.86691  0.75917  1.0000
  H   H2206     1.0  0.74736  0.54535  0.98970  1.0000
  H   H2207     1.0  0.59128  0.94206  0.75066  1.0000
  N   N70       1.0  0.64022  0.74736  0.84022  1.0000
  H   H2208     1.0  0.92692  0.89109  0.76178  1.0000
  H   H2209     1.0  0.92363  0.98653  0.80401  1.0000
  C   C1255     1.0  0.89981  0.85076  0.79280  1.0000
  H   H2210     1.0  0.57590  0.76327  0.87672  1.0000
  C   C1256     1.0  0.78319  0.82474  0.75157  1.0000
  H   H2211     1.0  0.62228  0.65525  0.88151  1.0000
  H   H2212     1.0  0.71772  0.78450  0.74942  1.0000
  C   C1257     1.0  0.67029  0.78137  0.83234  1.0000
  H   H2213     1.0  0.60537  0.77570  0.84024  1.0000
  H   H2214     1.0  0.96213  0.59086  0.98140  1.0000
  H   H2215     1.0  0.58952  0.74521  0.81928  1.0000
  H   H2216     1.0  0.95611  0.87851  0.81985  1.0000
  H   H2217     1.0  0.67202  0.74762  0.85857  1.0000
  H   H2218     1.0  0.62073  0.93282  0.76932  1.0000
  N   N71       1.0  0.49639  0.59880  0.98560  1.0000
  C   C1258     1.0  0.95435  0.89425  0.76062  1.0000
  H   H2219     1.0  0.58761  0.82571  0.75415  1.0000
  C   C1259     1.0  0.56894  0.83937  0.77723  1.0000
  C   C1260     1.0  0.56105  0.89404  0.78654  1.0000
  C   C1261     1.0  0.57132  0.88784  0.80291  1.0000
  H   H2220     1.0  0.58462  0.80474  0.86409  1.0000
  C   C1262     1.0  0.55572  0.90567  0.81532  1.0000
  H   H2221     1.0  0.58866  0.83702  0.78427  1.0000
  H   H2222     1.0  0.54380  0.82600  0.78495  1.0000
  H   H2223     1.0  0.53207  0.88090  0.78762  1.0000
  H   H2224     1.0  0.62735  0.89876  0.78086  1.0000
  H   H2225     1.0  0.59982  0.90042  0.80296  1.0000
  H   H2226     1.0  0.56181  0.85783  0.80666  1.0000
  H   H2227     1.0  0.96649  0.96266  0.82538  1.0000
  H   H2228     1.0  0.55088  0.93489  0.76252  1.0000
  H   H2229     1.0  0.53643  0.89164  0.96021  1.0000
  H   H2230     1.0  0.89470  0.83394  0.78300  1.0000
  C   C1263     1.0  0.53204  0.70303  0.96870  1.0000
  H   H2231     1.0  0.91872  0.77972  0.77310  1.0000
  C   C1264     1.0  0.99403  0.74223  0.75209  1.0000
  H   H2232     1.0  0.82061  0.78136  0.77597  1.0000
  H   H2233     1.0  0.63843  0.77306  0.87042  1.0000
  H   H2234     1.0  0.74706  0.80460  0.80653  1.0000
  H   H2235     1.0  0.79032  0.89724  0.74540  1.0000
  C   C1265     1.0  0.56353  0.77564  0.76945  1.0000
  C   C1266     1.0  0.98220  0.97609  0.84805  1.0000
  H   H2236     1.0  0.52698  0.89411  0.81597  1.0000
  H   H2237     1.0  0.95499  0.86628  0.76069  1.0000
  C   C1267     1.0  0.49685  0.94574  0.94389  1.0000
  H   H2238     1.0  0.92365  0.53197  0.96491  1.0000
  H   H2239     1.0  0.56253  0.75857  0.75939  1.0000
  H   H2240     1.0  0.52172  0.58916  0.96388  1.0000
  H   H2241     1.0  0.66981  0.71476  0.84494  1.0000
  H   H2242     1.0  0.54128  0.80927  0.75849  1.0000
  H   H2243     1.0  0.68629  0.92512  0.76460  1.0000
  C   C1268     1.0  0.98097  0.98835  0.83086  1.0000
  C   C1269     1.0  0.81365  0.80432  0.77177  1.0000
  H   H2244     1.0  0.49957  0.65184  0.96065  1.0000
  H   H2245     1.0  0.51358  0.94586  0.91292  1.0000
  C   C1270     1.0  0.79340  0.79322  0.75776  1.0000
  H   H2246     1.0  0.53843  0.71605  0.97981  1.0000
  Fe  Fe144     1.0  0.50712  0.72255  0.82915  1.0000
  C   C1271     1.0  0.63635  0.89413  0.75648  1.0000
  S   S286      1.0  0.86855  0.98425  0.78051  1.0000
  H   H2247     1.0  0.96604  0.90759  0.77094  1.0000
  C   C1272     1.0  0.61527  0.90269  0.77042  1.0000
  C   C1273     1.0  0.51530  0.90152  0.95937  1.0000
  H   H2248     1.0  0.49651  0.86810  0.89278  1.0000
  H   H2249     1.0  0.83805  0.82925  0.76842  1.0000
  H   H2250     1.0  0.56852  0.92444  0.78447  1.0000
  H   H2251     1.0  0.58659  0.77826  0.77527  1.0000
  H   H2252     1.0  0.50112  0.70552  0.87985  1.0000
  H   H2253     1.0  0.97334  0.96589  0.75631  1.0000
  H   H2254     1.0  0.53953  0.76096  0.77780  1.0000
  H   H2255     1.0  0.98110  0.71789  0.74554  1.0000
  H   H2256     1.0  0.49998  0.97888  0.98266  1.0000
  C   C1274     1.0  0.62630  0.78483  0.86208  1.0000
  H   H2257     1.0  0.56617  0.93621  0.81258  1.0000
  H   H2258     1.0  0.65793  0.66486  0.86620  1.0000
  C   C1275     1.0  0.69797  0.77404  0.82126  1.0000
  C   C1276     1.0  0.72761  0.81046  0.81443  1.0000
  C   C1277     1.0  0.61091  0.73713  0.81477  1.0000
  H   H2259     1.0  0.66087  0.79956  0.82564  1.0000
  H   H2260     1.0  0.68653  0.75881  0.81128  1.0000
  H   H2261     1.0  0.70950  0.75763  0.82765  1.0000
  H   H2262     1.0  0.63235  0.76163  0.80836  1.0000
  H   H2263     1.0  0.71765  0.82768  0.80753  1.0000
  H   H2264     1.0  0.74086  0.82651  0.82391  1.0000
  H   H2265     1.0  0.96066  0.60749  0.95323  1.0000
  H   H2266     1.0  0.61844  0.70170  0.79712  1.0000
  C   C1278     1.0  0.96761  0.61998  0.97747  1.0000
  H   H2267     1.0  0.58954  0.73515  0.85318  1.0000
  H   H2268     1.0  0.60806  0.67438  0.85649  1.0000
  C   C1279     1.0  0.62590  0.69616  0.86297  1.0000
  H   H2269     1.0  0.55616  0.70419  0.96171  1.0000
  H   H2270     1.0  0.64562  0.81268  0.85718  1.0000
  H   H2271     1.0  0.58675  0.72050  0.79371  1.0000
  H   H2272     1.0  0.98152  0.92178  0.84303  1.0000
  H   H2273     1.0  0.64047  0.70760  0.82345  1.0000
  H   H2274     1.0  0.76993  0.76779  0.76190  1.0000
  H   H2275     1.0  0.53068  0.86602  0.76144  1.0000
  C   C1280     1.0  0.90464  0.77600  0.76268  1.0000
  H   H2276     1.0  0.61019  0.70707  0.87081  1.0000
  H   H2277     1.0  0.66019  0.69803  0.88054  1.0000
  H   H2278     1.0  0.94502  0.94962  0.74196  1.0000
  C   C1281     1.0  0.52478  0.92942  0.94503  1.0000
  H   H2279     1.0  0.55089  0.57369  0.98232  1.0000
  H   H2280     1.0  0.80743  0.85033  0.75018  1.0000
  H   H2281     1.0  0.92156  0.60185  0.96560  1.0000
  C   C1282     1.0  0.96835  0.52162  0.96978  1.0000
  H   H2282     1.0  0.56844  0.87242  0.74857  1.0000
  C   C1283     1.0  0.64276  0.67754  0.87341  1.0000
  C   C1284     1.0  0.61376  0.75959  0.84861  1.0000
  C   C1285     1.0  0.92407  0.76506  0.74915  1.0000
  H   H2283     1.0  0.76536  0.82901  0.76109  1.0000
  H   H2284     1.0  0.95299  0.64786  0.95874  1.0000
  H   H2285     1.0  0.56260  0.89993  0.82697  1.0000
  C   C1286     1.0  0.62308  0.72072  0.82849  1.0000
  H   H2286     1.0  0.68768  0.53222  0.98364  1.0000
  C   C1287     1.0  0.93454  0.87601  0.81355  1.0000
  C   C1288     1.0  0.92822  0.85463  0.80073  1.0000
  C   C1289     1.0  0.59625  0.79034  0.87158  1.0000
  S   S287      1.0  0.52359  0.75478  0.84985  1.0000
  H   H2287     1.0  0.96129  0.97561  0.80114  1.0000
  H   H2288     1.0  0.97182  0.81034  0.75335  1.0000
  H   H2289     1.0  0.91459  0.97078  0.83018  1.0000
  H   H2290     1.0  0.54710  0.96913  0.88587  1.0000
  S   S288      1.0  0.50145  0.81827  0.83406  1.0000
  N   N72       1.0  0.50499  0.97760  0.93157  1.0000
  C   C1290     1.0  0.87781  0.89300  0.74218  1.0000
  C   C1291     1.0  0.97202  0.95572  0.74440  1.0000
  H   H2291     1.0  0.55078  0.95115  0.94575  1.0000
  C   C1292     1.0  0.67374  0.92317  0.75374  1.0000
  H   H2292     1.0  0.90206  0.80218  0.75929  1.0000
  H   H2293     1.0  0.52671  0.91439  0.93453  1.0000
  H   H2294     1.0  0.95538  0.63197  0.98651  1.0000
  H   H2295     1.0  0.50707  0.66495  0.87349  1.0000
  H   H2296     1.0  0.85518  0.97395  0.83354  1.0000
  H   H2297     1.0  0.52083  0.71920  0.96187  1.0000
  C   C1293     1.0  0.95955  0.79720  0.74304  1.0000
  H   H2298     1.0  0.73514  0.84954  0.74254  1.0000
  H   H2299     1.0  0.67435  0.95084  0.75004  1.0000
  H   H2300     1.0  0.55204  0.97394  0.92034  1.0000
  C   C1294     1.0  0.50555  0.66293  0.97208  1.0000
  C   C1295     1.0  0.94976  0.61941  0.96283  1.0000
  H   H2301     1.0  0.49850  0.56720  0.93945  1.0000
  C   C1296     1.0  0.49630  0.57671  0.97151  1.0000
  H   H2302     1.0  0.74228  0.75968  0.74155  1.0000
  H   H2303     1.0  0.68902  0.91517  0.74439  1.0000
  H   H2304     1.0  0.51800  0.90539  0.74092  1.0000
