data_image0
_chemical_formula_structural       CH5FeS3FeHS2FeS2FeS2HCFeHFeHS2H9C6H4C6H4FeCHC2H7SCH2C3HC4H9CH3SC2H3CHC2HCH3NC9SC2H28NC10H2CH13CH3CH2SH2CH6FeC3FeCH3CHSCN2SH2CSH7C2HCH2CH6C2HCH5C2H3C2H2CH2NCH2S2FeSHCSCH4SFeS2FeSCFeHFeHFeSCSC3H3C2HCH2CSC6H4C6H4CNC2H2FeH6CHCH8SH4CHCH6CHCH2FeH6CH2C3HC2HNC12H28CNH2CHCSH5CH4CHCH2CHC2H2CSCH3CHC2HSH2C4H5SCH2CHFeNH2CH3SH2CHSH5CHC2SCH3CH2C2NH2CHFeHCFeSFeHFeSHSHS2H2NFeS2FeS2FeS2FeSFeS3C6H4C2H3CHC2H3C6H4C2HCH2FeCHNC10H16CH4CSH6C2H4CH4C2H2CH4SCHSCHCH2C4H3C3H4FeH3CHCHCH5SH3CHC4H2CH5CHNH4CHNH5C2HC2SCH7CH4CHCH5NC2H5CHCH2FeHCFeSHFeS2FeS2FeS2FeSFeS3CSFeS2FeHFeCS2C3H2C2H3C6H4C6H4CH5CH5NC2HC3HCSC2H14CH6CNHC3HSC2HC2HFeH13C2H6CH3CNH11CH6CH2CHC2HCHCHCHC2HCSCH2CHCH3CHCSH2CHC3HNHCH3C2H4C2SCH5CH2FeSCFeSCFeS2FeSFeS4CFeSHFeS2FeH2S2H4C2H3C4HCHSHC6H5CH2CHC2H2C7H4CH10CH8C2H2CH3C2HCHNC11H4C2H13FeH4CH7NC9HSH6CHCH4SH5CHCHCH6CH3SHC2HC3HCH2NHCH3CH4FeC2H2SC2HCH4CSH3CH2CHCH4FeS2NSFeHFeSHS2FeS2FeSHFeSFeS3FeS2HC7SH5C6H3C6H2CH5C6H5CH5C5HCH2SH3CH4CH6CHCHCHC2HNH2CH10CHCH6CH2CH3C3HCH3CH2SHCHCH3NH2CH4CSH5C2HSH2CHCHCH3CHCH3CH6NCHCH2CHCH2CH4CH3CHCH4CHCH4NH4C6H3CHCFeH2C2H6C4H2FeC3HCHFeSHFeS2FeSFeS4FeS2FeHS2FeSHC6H3C5H3C6H3CHCH11C2SCH3CH6CH3C3H3CH2NH2CHC2NH2CHC3H2CH2CHC2HCH7CH5CHCH2CH3CHC2HCH2CH17CH3CHCH3C4HSHC3HCSHCHFeH5CHCH2CH5CH2CH3C4H4NHC3H3CH2CH4CHC3HCHC2H7CHCH2CH2CH4C2HFeS2FeSHFeS2FeS2FeCFeS3FeS5CH3C2HCHC6H3C6H4CH2C6H4C2H6CHCH3CH3CHCH3CH2C2H2NH2CH8CH2C2HCH2CH2CH3NC5HC2HC3H8CH8C2HCH5C3NH4CHC4H5CH4C2H3CSH7C2H2FeCH6CH3CH2CHCHCHCH2NC2HCH6CH8C2HC2H2CHCSHCHCNCH2FeS2H4FeSNS2FeS2CSFeS2FeS2FeHFeHS2CHCHC3SC5H4C3H4C6H4CHC6H4C4HSCHCH3C2H6CHCH2C2H3C2H4NH7CH4FeHCSH9CH2C2H7CHCHC2H2SCH3C2HC2H2CFeHNH3SH5CH4FeC2H4C2NC5HC3HC2H9CH6CNH2CH2C2HCH2C2H2CH2C3HCH8CHCH9C2HCH6FeSHSFeSHSFeS2FeS2FeSFeCS2FeCSHSFeSHC6H4C6H4C2HC7H3SH2CSH2C2H7C2H6C3H3SH3SFeNC12H25C3H2CFeH3SNC10HCH24CH6CH5CH3C2H2CH4CHCHCHSH2SC2H3SFeS3FeS2FeS2FeHFeS3FeS2FeS2CHCH2C7H4CH3C6H4C4H4C2HC3H7CH3NC8HC3H17CH11C3H2CH12CHCH3CHSH3NC2HCNCFeCHCHCH2CHCH9CH2NFeH2CHC2H5C2H2CH2CH2SCH5C2H8C4H2C3H2C3H6CHC2H2C2HFeSHFeS2FeSFeS3CH3FeSH2SNFeS2H2C6H2FeHC2HC2H3C6H8SC2H2CHCH3C2SCH2SH2C2H4C3H4CNH2CHCH5CH12C3H2CH5C5HSH4CHC5HCHCH3NCHCH7CH8CH2C3HSHCFeH2CH2C2H5C2H2CH2SHC2HCH2C3H2CH6C2H2CH7S2HFeS2FeS2FeSFeS3FeS2CFeHC3H2CH6C6H4C6H5C3H3C5H3C2H8CH3CH2CHC2H2CHC2H6C2H2CHCH3NHCH9CH2CH2NHC3H6C2HC6HC2H7NHCFeC3H4CH5CH6CH2CH3CH2CH2NH2C3H2CH10SHNH11CHCH2CHCH3CH2C2HC2HCHNHC2H2C2H3CHSHFeS2FeS2FeSFeS3CHSCFeS2H2CH4C2HC3H4C2SHC6H4C6H5CH4CHCH5C2H3CH6CHC2HCH2CH2NCH6C2HC3H2CH2CH3C4HCHCNC3H2CHC2HCH7C2H4CHCH3C2H6C2HNH2CH8CNHCFeH5CHSHCH5SHC2H6CFeH5CH3C2H5C5H2C2H2CSCNH3CHCH3CNC2H5FeS2HCHFeHFeS2CSFeSFeCSH2S2CHFeHSHNSC6H3C6H4C8H5SCH4NCHSHCH3C2HNH4SHCH3CSH3C2H2CHCH3C2NC12H24CH2NC11H19CH2C2H6CH3CH2FeH3CH12FeHC2HCHCH8CH2SC3H6CFe2S2FeSCSC2HCS2FeHSH2SFeS2CFeHSCH2C6H4C6H4C6H4S2H2C2HC2H2CH2C2H4CH2CHCH4CHC2H5CH5CNH3C2H3CH2SHCNC6HC3H13NH9CH3NC2HC3FeCHC2H3SHCH6CH4CH5CHCHC2H2SC2HCH2CH4CH3CH2NH4NCHCH4C2HCH2CHCH3SC4H2FeH2CH2SH10C2HFeHCH4
_chemical_formula_sum              "C1296 H2304 Fe144 S288 N72"
_cell_length_a       39.8788
_cell_length_b       40.4058
_cell_length_c       79.8802
_cell_angle_alpha    88.1183
_cell_angle_beta     90.7778
_cell_angle_gamma    119.718

_space_group_name_H-M_alt    "P 1"
_space_group_IT_number       1

loop_
  _space_group_symop_operation_xyz
  'x, y, z'

loop_
  _atom_site_type_symbol
  _atom_site_label
  _atom_site_symmetry_multiplicity
  _atom_site_fract_x
  _atom_site_fract_y
  _atom_site_fract_z
  _atom_site_occupancy
  C   C1        1.0  0.32683  0.03800  0.12454  1.0000
  H   H1        1.0  0.21058  0.21221  0.15325  1.0000
  H   H2        1.0  0.43463  0.43748  0.19301  1.0000
  H   H3        1.0  0.31749  0.01765  0.04976  1.0000
  H   H4        1.0  0.26855  0.24578  0.17144  1.0000
  H   H5        1.0  0.31467  0.25435  0.16396  1.0000
  Fe  Fe1       1.0  0.08643  0.43748  0.03216  1.0000
  S   S1        1.0  0.05983  0.39540  0.05427  1.0000
  S   S2        1.0  0.09406  0.42389  0.00594  1.0000
  S   S3        1.0  0.02254  0.12928  0.10914  1.0000
  Fe  Fe2       1.0  0.14543  0.03732  0.08164  1.0000
  H   H6        1.0  0.49009  0.08751  0.99211  1.0000
  S   S4        1.0  0.12135  0.07301  0.06940  1.0000
  S   S5        1.0  0.45168  0.39296  0.96800  1.0000
  Fe  Fe3       1.0  0.19939  0.03079  0.10734  1.0000
  S   S6        1.0  0.23782  0.05700  0.12996  1.0000
  S   S7        1.0  0.20728  0.04995  0.08013  1.0000
  Fe  Fe4       1.0  0.39619  0.25595  0.16239  1.0000
  S   S8        1.0  0.38276  0.22978  0.18842  1.0000
  S   S9        1.0  0.36245  0.23158  0.13846  1.0000
  H   H7        1.0  0.28793  0.40116  0.99442  1.0000
  C   C2        1.0  0.46916  0.42820  0.17545  1.0000
  Fe  Fe5       1.0  0.44538  0.24531  0.18913  1.0000
  H   H8        1.0  0.45555  0.09705  0.98106  1.0000
  Fe  Fe6       1.0  0.40344  0.28970  0.19688  1.0000
  H   H9        1.0  0.22678  0.18059  0.08140  1.0000
  S   S10       1.0  0.45736  0.26764  0.16264  1.0000
  S   S11       1.0  0.41234  0.31490  0.17071  1.0000
  H   H10       1.0  0.32556  0.01291  0.13127  1.0000
  H   H11       1.0  0.34921  0.42490  0.99795  1.0000
  H   H12       1.0  0.01130  0.17293  0.01615  1.0000
  H   H13       1.0  0.48695  0.08871  0.16603  1.0000
  H   H14       1.0  0.24029  0.42265  0.99695  1.0000
  H   H15       1.0  0.33718  0.39238  0.19582  1.0000
  H   H16       1.0  0.36276  0.34767  0.19358  1.0000
  H   H17       1.0  0.00911  0.01710  0.12558  1.0000
  H   H18       1.0  0.42550  0.01561  0.03671  1.0000
  C   C3        1.0  0.27196  0.10574  0.13196  1.0000
  C   C4        1.0  0.28748  0.13041  0.11801  1.0000
  C   C5        1.0  0.31556  0.16884  0.12019  1.0000
  C   C6        1.0  0.32819  0.18286  0.13628  1.0000
  C   C7        1.0  0.31234  0.15824  0.15022  1.0000
  C   C8        1.0  0.28450  0.11980  0.14804  1.0000
  H   H19       1.0  0.27828  0.11971  0.10557  1.0000
  H   H20       1.0  0.32762  0.18780  0.10934  1.0000
  H   H21       1.0  0.32116  0.16899  0.16267  1.0000
  H   H22       1.0  0.27233  0.10086  0.15889  1.0000
  C   C9        1.0  0.04731  0.11101  0.09784  1.0000
  C   C10       1.0  0.04854  0.11269  0.08034  1.0000
  C   C11       1.0  0.07152  0.10114  0.07180  1.0000
  C   C12       1.0  0.09247  0.08675  0.08064  1.0000
  C   C13       1.0  0.09035  0.08414  0.09813  1.0000
  C   C14       1.0  0.06823  0.09661  0.10670  1.0000
  H   H23       1.0  0.33449  0.13487  0.20137  1.0000
  H   H24       1.0  0.07317  0.10345  0.05827  1.0000
  H   H25       1.0  0.10624  0.07304  0.10506  1.0000
  H   H26       1.0  0.06751  0.09534  0.12024  1.0000
  Fe  Fe7       1.0  0.47267  0.32408  0.17327  1.0000
  C   C15       1.0  0.22478  0.15474  0.08769  1.0000
  H   H27       1.0  0.14457  0.14883  0.12176  1.0000
  C   C16       1.0  0.03054  0.34523  0.05354  1.0000
  C   C17       1.0  0.02012  0.32619  0.03841  1.0000
  H   H28       1.0  0.44634  0.39872  0.17272  1.0000
  H   H29       1.0  0.48600  0.40365  0.20302  1.0000
  H   H30       1.0  0.40209  0.19036  0.11903  1.0000
  H   H31       1.0  0.46124  0.49343  0.07056  1.0000
  H   H32       1.0  0.03111  0.00554  0.09799  1.0000
  H   H33       1.0  0.43918  0.05952  0.01401  1.0000
  H   H34       1.0  0.38345  0.02544  0.04970  1.0000
  S   S12       1.0  0.06480  0.47772  0.02433  1.0000
  C   C18       1.0  0.41522  0.04037  0.00565  1.0000
  H   H35       1.0  0.06319  0.01011  0.13816  1.0000
  H   H36       1.0  0.43627  0.38434  0.20609  1.0000
  C   C19       1.0  0.36423  0.45590  0.99490  1.0000
  C   C20       1.0  0.20250  0.14569  0.10418  1.0000
  C   C21       1.0  0.23989  0.40654  0.98586  1.0000
  H   H37       1.0  0.45744  0.03776  0.16476  1.0000
  C   C22       1.0  0.28623  0.25076  0.16002  1.0000
  C   C23       1.0  0.27994  0.41146  0.98286  1.0000
  C   C24       1.0  0.46201  0.06547  0.15950  1.0000
  C   C25       1.0  0.16708  0.20938  0.11858  1.0000
  H   H38       1.0  0.12972  0.04445  0.14950  1.0000
  H   H39       1.0  0.15963  0.07769  0.16507  1.0000
  H   H40       1.0  0.03476  0.01592  0.06394  1.0000
  H   H41       1.0  0.39990  0.05643  0.00235  1.0000
  H   H42       1.0  0.11455  0.17986  0.10394  1.0000
  H   H43       1.0  0.45194  0.49841  0.04875  1.0000
  H   H44       1.0  0.46907  0.06736  0.14597  1.0000
  H   H45       1.0  0.10737  0.19353  0.12436  1.0000
  H   H46       1.0  0.21866  0.37595  0.98827  1.0000
  C   C26       1.0  0.25030  0.49297  0.02452  1.0000
  H   H47       1.0  0.14914  0.17218  0.14064  1.0000
  H   H48       1.0  0.02555  0.33845  0.08043  1.0000
  H   H49       1.0  0.22336  0.47457  0.03098  1.0000
  S   S13       1.0  0.46495  0.20518  0.20021  1.0000
  C   C27       1.0  0.26636  0.21702  0.14843  1.0000
  C   C28       1.0  0.22387  0.17817  0.11667  1.0000
  H   H50       1.0  0.35402  0.43216  0.02872  1.0000
  H   H51       1.0  0.45338  0.43514  0.99647  1.0000
  H   H52       1.0  0.25089  0.17784  0.11987  1.0000
  C   C29       1.0  0.19573  0.14181  0.14339  1.0000
  H   H53       1.0  0.38334  0.14477  0.20441  1.0000
  C   C30       1.0  0.47047  0.49242  0.98754  1.0000
  C   C31       1.0  0.35882  0.47533  0.01024  1.0000
  H   H54       1.0  0.47751  0.07337  0.97081  1.0000
  C   C32       1.0  0.43167  0.19915  0.12363  1.0000
  H   H55       1.0  0.49265  0.22142  0.16562  1.0000
  H   H56       1.0  0.19592  0.14804  0.15691  1.0000
  H   H57       1.0  0.20943  0.13049  0.07918  1.0000
  N   N1        1.0  0.09172  0.25233  0.05944  1.0000
  C   C33       1.0  0.12397  0.24567  0.05398  1.0000
  C   C34       1.0  0.10150  0.29253  0.05436  1.0000
  C   C35       1.0  0.09016  0.24939  0.07837  1.0000
  C   C36       1.0  0.05279  0.22356  0.05262  1.0000
  C   C37       1.0  0.05219  0.20768  0.03508  1.0000
  C   C38       1.0  0.12167  0.20825  0.06101  1.0000
  C   C39       1.0  0.06155  0.25910  0.08693  1.0000
  C   C40       1.0  0.10581  0.30288  0.03538  1.0000
  C   C41       1.0  0.12179  0.34571  0.03231  1.0000
  S   S14       1.0  0.03624  0.45234  0.97572  1.0000
  C   C42       1.0  0.14742  0.19763  0.05119  1.0000
  C   C43       1.0  0.05928  0.25030  0.10578  1.0000
  H   H58       1.0  0.15240  0.26967  0.05790  1.0000
  H   H59       1.0  0.12589  0.24589  0.04015  1.0000
  H   H60       1.0  0.07855  0.29848  0.05853  1.0000
  H   H61       1.0  0.12853  0.31345  0.06071  1.0000
  H   H62       1.0  0.11933  0.26825  0.08370  1.0000
  H   H63       1.0  0.08158  0.21979  0.08278  1.0000
  H   H64       1.0  0.03797  0.19814  0.06126  1.0000
  H   H65       1.0  0.03341  0.23596  0.05215  1.0000
  H   H66       1.0  0.06359  0.18759  0.03591  1.0000
  H   H67       1.0  0.06991  0.23041  0.02578  1.0000
  H   H68       1.0  0.13156  0.21187  0.07423  1.0000
  H   H69       1.0  0.09169  0.18404  0.06073  1.0000
  H   H70       1.0  0.03217  0.24232  0.08161  1.0000
  H   H71       1.0  0.07105  0.28991  0.08538  1.0000
  H   H72       1.0  0.12572  0.29545  0.02915  1.0000
  H   H73       1.0  0.07704  0.28800  0.02930  1.0000
  H   H74       1.0  0.15160  0.36220  0.03728  1.0000
  H   H75       1.0  0.12262  0.35222  0.01865  1.0000
  H   H76       1.0  0.10330  0.35526  0.03840  1.0000
  H   H77       1.0  0.46761  0.44792  0.16586  1.0000
  H   H78       1.0  0.17341  0.14104  0.10102  1.0000
  H   H79       1.0  0.18438  0.21551  0.10699  1.0000
  H   H80       1.0  0.17791  0.22107  0.05135  1.0000
  H   H81       1.0  0.14603  0.17158  0.05698  1.0000
  H   H82       1.0  0.13746  0.19157  0.03802  1.0000
  H   H83       1.0  0.03855  0.25736  0.11161  1.0000
  H   H84       1.0  0.04913  0.21955  0.10833  1.0000
  H   H85       1.0  0.08797  0.26759  0.11168  1.0000
  N   N2        1.0  0.39710  0.11328  0.15613  1.0000
  C   C44       1.0  0.43101  0.10664  0.15450  1.0000
  C   C45       1.0  0.40673  0.15174  0.14839  1.0000
  C   C46       1.0  0.38992  0.11376  0.17465  1.0000
  C   C47       1.0  0.36076  0.08181  0.14859  1.0000
  C   C48       1.0  0.36251  0.07478  0.12979  1.0000
  C   C49       1.0  0.42563  0.06841  0.16201  1.0000
  C   C50       1.0  0.36033  0.12633  0.17938  1.0000
  C   C51       1.0  0.43272  0.16558  0.13249  1.0000
  C   C52       1.0  0.46324  0.43895  0.19287  1.0000
  C   C53       1.0  0.25024  0.50020  0.00729  1.0000
  H   H86       1.0  0.44507  0.01790  0.99005  1.0000
  H   H87       1.0  0.22000  0.13587  0.14188  1.0000
  C   C54       1.0  0.01760  0.32389  0.06868  1.0000
  H   H88       1.0  0.43963  0.10805  0.14127  1.0000
  H   H89       1.0  0.37972  0.15246  0.14546  1.0000
  H   H90       1.0  0.42251  0.17473  0.15754  1.0000
  H   H91       1.0  0.41749  0.13304  0.18111  1.0000
  H   H92       1.0  0.37914  0.08500  0.18061  1.0000
  H   H93       1.0  0.35104  0.05450  0.15578  1.0000
  H   H94       1.0  0.33654  0.08780  0.14971  1.0000
  H   H95       1.0  0.38809  0.07221  0.12671  1.0000
  H   H96       1.0  0.36289  0.09844  0.12215  1.0000
  H   H97       1.0  0.42016  0.06592  0.17569  1.0000
  H   H98       1.0  0.40135  0.04384  0.15585  1.0000
  H   H99       1.0  0.33151  0.10717  0.17409  1.0000
  H   H100      1.0  0.36998  0.15588  0.17481  1.0000
  C   C55       1.0  0.46426  0.41155  0.20671  1.0000
  H   H101      1.0  0.42418  0.14304  0.12326  1.0000
  H   H102      1.0  0.45673  0.12999  0.16059  1.0000
  H   H103      1.0  0.20011  0.11885  0.10946  1.0000
  C   C56       1.0  0.35395  0.35226  0.20563  1.0000
  H   H104      1.0  0.15280  0.09539  0.12780  1.0000
  H   H105      1.0  0.39529  0.46445  0.99427  1.0000
  S   S15       1.0  0.13967  0.02278  0.10908  1.0000
  H   H106      1.0  0.28591  0.22320  0.13761  1.0000
  H   H107      1.0  0.44072  0.22309  0.13224  1.0000
  C   C57       1.0  0.46604  0.07635  0.98294  1.0000
  H   H108      1.0  0.03835  0.01254  0.03531  1.0000
  H   H109      1.0  0.30464  0.47189  0.98682  1.0000
  H   H110      1.0  0.12953  0.22888  0.10772  1.0000
  H   H111      1.0  0.29130  0.27752  0.15346  1.0000
  H   H112      1.0  0.46663  0.01385  0.01500  1.0000
  H   H113      1.0  0.45168  0.20938  0.11274  1.0000
  Fe  Fe8       1.0  0.15398  0.47462  0.00729  1.0000
  C   C58       1.0  0.37175  0.46341  0.02633  1.0000
  C   C59       1.0  0.16445  0.17465  0.12868  1.0000
  C   C60       1.0  0.15743  0.10382  0.14101  1.0000
  Fe  Fe9       1.0  0.07600  0.46683  0.99815  1.0000
  C   C61       1.0  0.12712  0.20234  0.11339  1.0000
  H   H114      1.0  0.35423  0.06441  0.05582  1.0000
  H   H115      1.0  0.32796  0.03443  0.11087  1.0000
  H   H116      1.0  0.40268  0.47154  0.02544  1.0000
  C   C62       1.0  0.46173  0.45441  0.98565  1.0000
  H   H117      1.0  0.18018  0.23512  0.12633  1.0000
  S   S16       1.0  0.14801  0.48480  0.03418  1.0000
  C   C63       1.0  0.22692  0.21150  0.14217  1.0000
  N   N3        1.0  0.20230  0.17590  0.13244  1.0000
  N   N4        1.0  0.35157  0.46442  0.97820  1.0000
  S   S17       1.0  0.46506  0.30275  0.19994  1.0000
  H   H118      1.0  0.26329  0.19151  0.15542  1.0000
  H   H119      1.0  0.03267  0.12388  0.07340  1.0000
  C   C64       1.0  0.37436  0.03699  0.03884  1.0000
  S   S18       1.0  0.20711  0.47789  0.99569  1.0000
  H   H120      1.0  0.03018  0.34228  0.02670  1.0000
  H   H121      1.0  0.34434  0.09594  0.20363  1.0000
  H   H122      1.0  0.23417  0.23757  0.13442  1.0000
  H   H123      1.0  0.18130  0.06698  0.14785  1.0000
  H   H124      1.0  0.25432  0.15930  0.08989  1.0000
  H   H125      1.0  0.39925  0.06452  0.03451  1.0000
  H   H126      1.0  0.23388  0.20599  0.10991  1.0000
  C   C65       1.0  0.43328  0.03751  0.98895  1.0000
  C   C66       1.0  0.15709  0.07137  0.15153  1.0000
  H   H127      1.0  0.13246  0.10658  0.14514  1.0000
  C   C67       1.0  0.34292  0.04464  0.04524  1.0000
  H   H128      1.0  0.46314  0.17519  0.13612  1.0000
  H   H129      1.0  0.34246  0.01695  0.01601  1.0000
  C   C68       1.0  0.35542  0.12532  0.19837  1.0000
  H   H130      1.0  0.48578  0.46891  0.19492  1.0000
  H   H131      1.0  0.30010  0.03898  0.12724  1.0000
  H   H132      1.0  0.32808  0.46726  0.01185  1.0000
  H   H133      1.0  0.36815  0.47809  0.03710  1.0000
  H   H134      1.0  0.41118  0.02671  0.97893  1.0000
  H   H135      1.0  0.33357  0.05788  0.03516  1.0000
  C   C69       1.0  0.33943  0.37759  0.20694  1.0000
  C   C70       1.0  0.30946  0.45347  0.97827  1.0000
  H   H136      1.0  0.27731  0.39311  0.97232  1.0000
  C   C71       1.0  0.01117  0.18588  0.02818  1.0000
  H   H137      1.0  0.34767  0.00430  0.98752  1.0000
  H   H138      1.0  0.49201  0.03573  0.21418  1.0000
  H   H139      1.0  0.37901  0.40806  0.97736  1.0000
  H   H140      1.0  0.00352  0.48111  0.99968  1.0000
  H   H141      1.0  0.01210  0.04943  0.03344  1.0000
  C   C72       1.0  0.49510  0.19365  0.18869  1.0000
  C   C73       1.0  0.35887  0.00794  0.02458  1.0000
  H   H142      1.0  0.23019  0.41690  0.97478  1.0000
  H   H143      1.0  0.32788  0.38527  0.97440  1.0000
  H   H144      1.0  0.00256  0.05022  0.05528  1.0000
  C   C74       1.0  0.49204  0.00880  0.21182  1.0000
  C   C75       1.0  0.46355  0.44107  0.96982  1.0000
  H   H145      1.0  0.00962  0.00665  0.15588  1.0000
  H   H146      1.0  0.48822  0.00359  0.19818  1.0000
  C   C76       1.0  0.99923  0.46417  0.97419  1.0000
  H   H147      1.0  0.49789  0.43021  0.17451  1.0000
  H   H148      1.0  0.99952  0.20552  0.02581  1.0000
  N   N5        1.0  0.38858  0.00327  0.01492  1.0000
  C   C77       1.0  0.35600  0.40523  0.96854  1.0000
  H   H149      1.0  0.46887  0.50237  0.99974  1.0000
  H   H150      1.0  0.17810  0.47102  0.32962  1.0000
  S   S19       1.0  0.03631  0.20998  0.35273  1.0000
  S   S20       1.0  0.04560  0.23844  0.30302  1.0000
  Fe  Fe10      1.0  0.02249  0.14864  0.35272  1.0000
  S   S21       1.0  0.06008  0.12660  0.36462  1.0000
  H   H151      1.0  0.41986  0.22340  0.39063  1.0000
  C   C78       1.0  0.27984  0.00582  0.31540  1.0000
  S   S22       1.0  0.12943  0.04300  0.32292  1.0000
  C   C79       1.0  0.27341  0.11282  0.35740  1.0000
  H   H152      1.0  0.49160  0.36832  0.22222  1.0000
  H   H153      1.0  0.27325  0.01946  0.35702  1.0000
  H   H154      1.0  0.46572  0.38547  0.40383  1.0000
  H   H155      1.0  0.10299  0.36014  0.23647  1.0000
  S   S23       1.0  0.31071  0.41694  0.22341  1.0000
  Fe  Fe11      1.0  0.44141  0.08951  0.40616  1.0000
  S   S24       1.0  0.39997  0.06900  0.38389  1.0000
  S   S25       1.0  0.42762  0.09465  0.43277  1.0000
  Fe  Fe12      1.0  0.28974  0.43495  0.24606  1.0000
  S   S26       1.0  0.30941  0.43902  0.27288  1.0000
  C   C80       1.0  0.37000  0.22915  0.39503  1.0000
  Fe  Fe13      1.0  0.23925  0.47076  0.25356  1.0000
  H   H156      1.0  0.49130  0.18588  0.36404  1.0000
  Fe  Fe14      1.0  0.47114  0.07640  0.43977  1.0000
  H   H157      1.0  0.45418  0.41239  0.41786  1.0000
  Fe  Fe15      1.0  0.24690  0.41799  0.27944  1.0000
  S   S27       1.0  0.21737  0.37827  0.30192  1.0000
  C   C81       1.0  0.45741  0.36458  0.42964  1.0000
  S   S28       1.0  0.22668  0.40996  0.25270  1.0000
  C   C82       1.0  0.41588  0.46983  0.24700  1.0000
  C   C83       1.0  0.34538  0.33937  0.23549  1.0000
  C   C84       1.0  0.33091  0.36474  0.23681  1.0000
  H   H158      1.0  0.34769  0.32465  0.24663  1.0000
  H   H159      1.0  0.32220  0.36946  0.24886  1.0000
  H   H160      1.0  0.34468  0.22695  0.38812  1.0000
  C   C85       1.0  0.34896  0.04694  0.38431  1.0000
  C   C86       1.0  0.32900  0.04172  0.36909  1.0000
  H   H161      1.0  0.08363  0.39000  0.32494  1.0000
  C   C87       1.0  0.08744  0.45461  0.27440  1.0000
  H   H162      1.0  0.41213  0.41533  0.22459  1.0000
  H   H163      1.0  0.42737  0.25013  0.43474  1.0000
  C   C88       1.0  0.32781  0.38397  0.22251  1.0000
  S   S29       1.0  0.48206  0.06742  0.41312  1.0000
  C   C89       1.0  0.07750  0.10174  0.35299  1.0000
  C   C90       1.0  0.10301  0.09144  0.36066  1.0000
  C   C91       1.0  0.11842  0.07268  0.35165  1.0000
  C   C92       1.0  0.10851  0.06419  0.33485  1.0000
  C   C93       1.0  0.08273  0.07420  0.32720  1.0000
  C   C94       1.0  0.06695  0.09251  0.33629  1.0000
  H   H164      1.0  0.11128  0.09842  0.37358  1.0000
  H   H165      1.0  0.13848  0.06534  0.35763  1.0000
  H   H166      1.0  0.07517  0.06804  0.31418  1.0000
  H   H167      1.0  0.04700  0.09986  0.33034  1.0000
  C   C95       1.0  0.09318  0.27753  0.30296  1.0000
  C   C96       1.0  0.11401  0.29090  0.31778  1.0000
  C   C97       1.0  0.15170  0.32239  0.31726  1.0000
  C   C98       1.0  0.16916  0.34032  0.30194  1.0000
  C   C99       1.0  0.14840  0.32687  0.28711  1.0000
  C   C100      1.0  0.11045  0.29577  0.28764  1.0000
  H   H168      1.0  0.10097  0.27718  0.32965  1.0000
  H   H169      1.0  0.16760  0.33266  0.32879  1.0000
  H   H170      1.0  0.16177  0.34013  0.27523  1.0000
  H   H171      1.0  0.09454  0.28553  0.27611  1.0000
  C   C101      1.0  0.13288  0.43854  0.30114  1.0000
  N   N6        1.0  0.47115  0.42640  0.22426  1.0000
  C   C102      1.0  0.28835  0.02325  0.36876  1.0000
  C   C103      1.0  0.16344  0.43054  0.30964  1.0000
  H   H172      1.0  0.34292  0.03790  0.41104  1.0000
  H   H173      1.0  0.10654  0.47962  0.28193  1.0000
  Fe  Fe16      1.0  0.01584  0.20063  0.32600  1.0000
  H   H174      1.0  0.39878  0.22976  0.37211  1.0000
  H   H175      1.0  0.38022  0.28167  0.40623  1.0000
  H   H176      1.0  0.39621  0.14758  0.43788  1.0000
  H   H177      1.0  0.27115  0.00496  0.41050  1.0000
  H   H178      1.0  0.14444  0.43327  0.26961  1.0000
  H   H179      1.0  0.35850  0.10788  0.42697  1.0000
  C   C104      1.0  0.40572  0.24161  0.44491  1.0000
  H   H180      1.0  0.34051  0.18014  0.36075  1.0000
  C   C105      1.0  0.39635  0.27123  0.39887  1.0000
  H   H181      1.0  0.44552  0.31801  0.24184  1.0000
  H   H182      1.0  0.35216  0.14741  0.43276  1.0000
  H   H183      1.0  0.01996  0.41173  0.44690  1.0000
  H   H184      1.0  0.03857  0.37115  0.31379  1.0000
  H   H185      1.0  0.37772  0.26512  0.45909  1.0000
  H   H186      1.0  0.03730  0.46102  0.27930  1.0000
  H   H187      1.0  0.11831  0.44566  0.31102  1.0000
  H   H188      1.0  0.10584  0.35963  0.30231  1.0000
  S   S30       1.0  0.00657  0.14113  0.32567  1.0000
  H   H189      1.0  0.42176  0.27514  0.40631  1.0000
  H   H190      1.0  0.44669  0.46328  0.21941  1.0000
  H   H191      1.0  0.17972  0.42477  0.30016  1.0000
  H   H192      1.0  0.07233  0.46607  0.45170  1.0000
  C   C106      1.0  0.37326  0.13931  0.42827  1.0000
  H   H193      1.0  0.06230  0.34697  0.29175  1.0000
  C   C107      1.0  0.40168  0.27569  0.44987  1.0000
  H   H194      1.0  0.25475  0.11945  0.36519  1.0000
  H   H195      1.0  0.25646  0.08237  0.35401  1.0000
  H   H196      1.0  0.06592  0.04408  0.43233  1.0000
  H   H197      1.0  0.41688  0.36586  0.41135  1.0000
  H   H198      1.0  0.25940  0.00763  0.30632  1.0000
  H   H199      1.0  0.31432  0.16745  0.37996  1.0000
  C   C108      1.0  0.28725  0.01534  0.39889  1.0000
  H   H200      1.0  0.46417  0.31217  0.44944  1.0000
  C   C109      1.0  0.19268  0.46483  0.31943  1.0000
  H   H201      1.0  0.42294  0.45920  0.44070  1.0000
  H   H202      1.0  0.04910  0.39336  0.27855  1.0000
  Fe  Fe17      1.0  0.31549  0.49759  0.27171  1.0000
  H   H203      1.0  0.43302  0.37103  0.23552  1.0000
  H   H204      1.0  0.45187  0.33625  0.42568  1.0000
  H   H205      1.0  0.37762  0.21867  0.44030  1.0000
  H   H206      1.0  0.43835  0.39025  0.44756  1.0000
  H   H207      1.0  0.03236  0.32743  0.33664  1.0000
  H   H208      1.0  0.40671  0.28880  0.38710  1.0000
  C   C110      1.0  0.43999  0.45005  0.24591  1.0000
  H   H209      1.0  0.10357  0.45493  0.26315  1.0000
  H   H210      1.0  0.14930  0.46538  0.29356  1.0000
  C   C111      1.0  0.30944  0.11948  0.36710  1.0000
  C   C112      1.0  0.07314  0.41738  0.28520  1.0000
  C   C113      1.0  0.12443  0.40451  0.27520  1.0000
  H   H211      1.0  0.08033  0.39074  0.25552  1.0000
  C   C114      1.0  0.33388  0.16169  0.37231  1.0000
  C   C115      1.0  0.44162  0.43853  0.22770  1.0000
  H   H212      1.0  0.30832  0.01717  0.30915  1.0000
  N   N7        1.0  0.16403  0.21906  0.31272  1.0000
  C   C116      1.0  0.12194  0.19182  0.30914  1.0000
  C   C117      1.0  0.16792  0.23936  0.32885  1.0000
  C   C118      1.0  0.17959  0.24847  0.29847  1.0000
  C   C119      1.0  0.18757  0.19913  0.31337  1.0000
  C   C120      1.0  0.17710  0.16820  0.32733  1.0000
  C   C121      1.0  0.11295  0.17028  0.29250  1.0000
  C   C122      1.0  0.21971  0.28440  0.30124  1.0000
  C   C123      1.0  0.13779  0.21685  0.34292  1.0000
  C   C124      1.0  0.14819  0.23902  0.35907  1.0000
  C   C125      1.0  0.19941  0.14687  0.32518  1.0000
  C   C126      1.0  0.06950  0.14408  0.29041  1.0000
  C   C127      1.0  0.23530  0.30793  0.28493  1.0000
  H   H213      1.0  0.10556  0.20764  0.30902  1.0000
  H   H214      1.0  0.10846  0.16960  0.31922  1.0000
  H   H215      1.0  0.19744  0.25041  0.33414  1.0000
  H   H216      1.0  0.16490  0.26492  0.32634  1.0000
  H   H217      1.0  0.15903  0.25902  0.29549  1.0000
  H   H218      1.0  0.18213  0.23540  0.28685  1.0000
  H   H219      1.0  0.18673  0.18646  0.30111  1.0000
  H   H220      1.0  0.21854  0.21990  0.31532  1.0000
  H   H221      1.0  0.14602  0.14703  0.32724  1.0000
  H   H222      1.0  0.18503  0.18156  0.33974  1.0000
  H   H223      1.0  0.12297  0.19039  0.28152  1.0000
  H   H224      1.0  0.12670  0.15223  0.29225  1.0000
  H   H225      1.0  0.24158  0.27706  0.30583  1.0000
  H   H226      1.0  0.21753  0.30307  0.31053  1.0000
  H   H227      1.0  0.10890  0.21204  0.33902  1.0000
  H   H228      1.0  0.13500  0.18867  0.34587  1.0000
  H   H229      1.0  0.14961  0.26699  0.35687  1.0000
  H   H230      1.0  0.12562  0.22247  0.36869  1.0000
  H   H231      1.0  0.17635  0.24363  0.36395  1.0000
  H   H232      1.0  0.19299  0.12625  0.33585  1.0000
  H   H233      1.0  0.19059  0.13064  0.31344  1.0000
  H   H234      1.0  0.23102  0.16696  0.32489  1.0000
  H   H235      1.0  0.05790  0.12199  0.30064  1.0000
  H   H236      1.0  0.05422  0.16082  0.29049  1.0000
  H   H237      1.0  0.06366  0.12955  0.27828  1.0000
  H   H238      1.0  0.21422  0.31559  0.27946  1.0000
  H   H239      1.0  0.26246  0.33478  0.28747  1.0000
  H   H240      1.0  0.24156  0.29182  0.27565  1.0000
  C   C128      1.0  0.39114  0.15973  0.41157  1.0000
  N   N8        1.0  0.10372  0.40745  0.29030  1.0000
  H   H241      1.0  0.34892  0.11786  0.39570  1.0000
  H   H242      1.0  0.20791  0.49040  0.31097  1.0000
  C   C129      1.0  0.05378  0.45989  0.26845  1.0000
  H   H243      1.0  0.35996  0.21308  0.40714  1.0000
  C   C130      1.0  0.39159  0.21399  0.38445  1.0000
  S   S31       1.0  0.48935  0.15042  0.40410  1.0000
  H   H244      1.0  0.00700  0.00331  0.28369  1.0000
  H   H245      1.0  0.29952  0.09992  0.37827  1.0000
  H   H246      1.0  0.33450  0.14897  0.40381  1.0000
  H   H247      1.0  0.03717  0.38345  0.45808  1.0000
  H   H248      1.0  0.07889  0.34956  0.26563  1.0000
  C   C131      1.0  0.35701  0.33301  0.21993  1.0000
  H   H249      1.0  0.02576  0.04013  0.40806  1.0000
  H   H250      1.0  0.09224  0.05190  0.41309  1.0000
  H   H251      1.0  0.04073  0.48043  0.46030  1.0000
  H   H252      1.0  0.05489  0.02029  0.38710  1.0000
  C   C132      1.0  0.12230  0.37723  0.24672  1.0000
  H   H253      1.0  0.40657  0.19062  0.41396  1.0000
  C   C133      1.0  0.32791  0.03404  0.39925  1.0000
  H   H254      1.0  0.47293  0.34593  0.25944  1.0000
  H   H255      1.0  0.05954  0.42129  0.29647  1.0000
  C   C134      1.0  0.06633  0.47709  0.46320  1.0000
  H   H256      1.0  0.07432  0.32586  0.32987  1.0000
  C   C135      1.0  0.06408  0.36764  0.31630  1.0000
  C   C136      1.0  0.44009  0.46434  0.45194  1.0000
  H   H257      1.0  0.49432  0.32791  0.24514  1.0000
  H   H258      1.0  0.48872  0.38243  0.43217  1.0000
  C   C137      1.0  0.47464  0.33985  0.24611  1.0000
  S   S32       1.0  0.45656  0.03605  0.46247  1.0000
  C   C138      1.0  0.08465  0.36940  0.29965  1.0000
  H   H259      1.0  0.34513  0.05185  0.35749  1.0000
  H   H260      1.0  0.13897  0.36338  0.25118  1.0000
  H   H261      1.0  0.01924  0.00628  0.35069  1.0000
  C   C139      1.0  0.44779  0.38320  0.41480  1.0000
  H   H262      1.0  0.05880  0.00587  0.36163  1.0000
  C   C140      1.0  0.48985  0.37619  0.23516  1.0000
  C   C141      1.0  0.46364  0.39419  0.23654  1.0000
  H   H263      1.0  0.46724  0.40379  0.24964  1.0000
  S   S33       1.0  0.37627  0.30177  0.21917  1.0000
  H   H264      1.0  0.28149  0.13070  0.34569  1.0000
  H   H265      1.0  0.45045  0.13867  0.36597  1.0000
  C   C142      1.0  0.49241  0.25070  0.41417  1.0000
  C   C143      1.0  0.39481  0.16118  0.37086  1.0000
  C   C144      1.0  0.43929  0.18410  0.37301  1.0000
  C   C145      1.0  0.45957  0.16865  0.36225  1.0000
  H   H266      1.0  0.38563  0.13039  0.37261  1.0000
  H   H267      1.0  0.38996  0.16508  0.35733  1.0000
  H   H268      1.0  0.32624  0.11123  0.35895  1.0000
  H   H269      1.0  0.45074  0.21440  0.36899  1.0000
  H   H270      1.0  0.44749  0.18310  0.38616  1.0000
  S   S34       1.0  0.30031  0.49531  0.24457  1.0000
  C   C146      1.0  0.35951  0.14850  0.39802  1.0000
  H   H271      1.0  0.41223  0.15101  0.40786  1.0000
  H   H272      1.0  0.45304  0.17015  0.34878  1.0000
  C   C147      1.0  0.09826  0.37917  0.26098  1.0000
  H   H273      1.0  0.14254  0.40625  0.24157  1.0000
  Fe  Fe18      1.0  0.47856  0.15422  0.43115  1.0000
  N   N9        1.0  0.37069  0.17157  0.38173  1.0000
  H   H274      1.0  0.21454  0.45847  0.32510  1.0000
  H   H275      1.0  0.14985  0.40573  0.31856  1.0000
  C   C148      1.0  0.04959  0.32916  0.32550  1.0000
  H   H276      1.0  0.39338  0.28625  0.43848  1.0000
  H   H277      1.0  0.14353  0.39284  0.27900  1.0000
  H   H278      1.0  0.49542  0.01045  0.43981  1.0000
  S   S35       1.0  0.25501  0.47697  0.28064  1.0000
  H   H279      1.0  0.42609  0.42426  0.25431  1.0000
  H   H280      1.0  0.03101  0.30526  0.31724  1.0000
  C   C149      1.0  0.43297  0.36101  0.44527  1.0000
  H   H281      1.0  0.38597  0.45084  0.24261  1.0000
  S   S36       1.0  0.47970  0.20547  0.44268  1.0000
  H   H282      1.0  0.00955  0.03432  0.37565  1.0000
  H   H283      1.0  0.03420  0.43625  0.26030  1.0000
  H   H284      1.0  0.40190  0.34467  0.44182  1.0000
  H   H285      1.0  0.09349  0.42944  0.46685  1.0000
  H   H286      1.0  0.28285  0.02373  0.32619  1.0000
  C   C150      1.0  0.26726  0.00955  0.38366  1.0000
  H   H287      1.0  0.46930  0.46968  0.25069  1.0000
  C   C151      1.0  0.47834  0.47147  0.45077  1.0000
  C   C152      1.0  0.02981  0.01533  0.41107  1.0000
  S   S37       1.0  0.20014  0.49086  0.24176  1.0000
  C   C153      1.0  0.01565  0.39324  0.45817  1.0000
  H   H288      1.0  0.47962  0.22462  0.40738  1.0000
  H   H289      1.0  0.41435  0.47681  0.26021  1.0000
  H   H290      1.0  0.06003  0.00644  0.30113  1.0000
  C   C154      1.0  0.48087  0.37226  0.46704  1.0000
  H   H291      1.0  0.06517  0.48719  0.26111  1.0000
  H   H292      1.0  0.49065  0.47216  0.43870  1.0000
  C   C155      1.0  0.06761  0.03033  0.42080  1.0000
  C   C156      1.0  0.43969  0.30712  0.45761  1.0000
  N   N10       1.0  0.44095  0.34423  0.46096  1.0000
  H   H293      1.0  0.41480  0.23006  0.45578  1.0000
  H   H294      1.0  0.42892  0.49672  0.23931  1.0000
  C   C157      1.0  0.49752  0.24937  0.43146  1.0000
  H   H295      1.0  0.07299  0.00662  0.42451  1.0000
  Fe  Fe19      1.0  0.45956  0.19004  0.69092  1.0000
  H   H296      1.0  0.39752  0.22208  0.69794  1.0000
  C   C158      1.0  0.25103  0.05642  0.58544  1.0000
  Fe  Fe20      1.0  0.41970  0.10361  0.69874  1.0000
  S   S38       1.0  0.43279  0.09154  0.67308  1.0000
  Fe  Fe21      1.0  0.34925  0.46345  0.49147  1.0000
  H   H297      1.0  0.99865  0.13452  0.55748  1.0000
  Fe  Fe22      1.0  0.41414  0.13332  0.66394  1.0000
  S   S39       1.0  0.37892  0.12156  0.64007  1.0000
  H   H298      1.0  0.05741  0.38402  0.49266  1.0000
  S   S40       1.0  0.39770  0.14266  0.68944  1.0000
  H   H299      1.0  0.24934  0.01308  0.71288  1.0000
  S   S41       1.0  0.37436  0.47284  0.51736  1.0000
  S   S42       1.0  0.37494  0.45206  0.46855  1.0000
  H   H300      1.0  0.08627  0.24819  0.53658  1.0000
  H   H301      1.0  0.00140  0.24886  0.60471  1.0000
  N   N11       1.0  0.20608  0.01392  0.62981  1.0000
  Fe  Fe23      1.0  0.31284  0.43587  0.52608  1.0000
  S   S43       1.0  0.29704  0.39563  0.54893  1.0000
  S   S44       1.0  0.28811  0.42303  0.50007  1.0000
  Fe  Fe24      1.0  0.20874  0.15009  0.60773  1.0000
  S   S45       1.0  0.22272  0.13716  0.58244  1.0000
  S   S46       1.0  0.24401  0.16120  0.63157  1.0000
  Fe  Fe25      1.0  0.13120  0.14124  0.59590  1.0000
  S   S47       1.0  0.13991  0.12792  0.56982  1.0000
  S   S48       1.0  0.07833  0.14135  0.60616  1.0000
  Fe  Fe26      1.0  0.16043  0.09047  0.58226  1.0000
  S   S49       1.0  0.14127  0.03130  0.57265  1.0000
  Fe  Fe27      1.0  0.20091  0.17594  0.57239  1.0000
  S   S50       1.0  0.22553  0.21546  0.54942  1.0000
  S   S51       1.0  0.14804  0.10082  0.60820  1.0000
  S   S52       1.0  0.19094  0.19196  0.59775  1.0000
  C   C159      1.0  0.27955  0.34594  0.54875  1.0000
  C   C160      1.0  0.27060  0.32518  0.56408  1.0000
  C   C161      1.0  0.25480  0.28532  0.56452  1.0000
  C   C162      1.0  0.24774  0.26582  0.54959  1.0000
  C   C163      1.0  0.25713  0.28662  0.53426  1.0000
  C   C164      1.0  0.27291  0.32651  0.53381  1.0000
  H   H302      1.0  0.27566  0.34004  0.57568  1.0000
  H   H303      1.0  0.24791  0.26969  0.57639  1.0000
  H   H304      1.0  0.25177  0.27173  0.52266  1.0000
  H   H305      1.0  0.27960  0.34217  0.52194  1.0000
  C   C165      1.0  0.03410  0.13473  0.57819  1.0000
  C   C166      1.0  0.03456  0.12353  0.59491  1.0000
  H   H306      1.0  0.22854  0.01571  0.65469  1.0000
  H   H307      1.0  0.06104  0.15228  0.57164  1.0000
  H   H308      1.0  0.03867  0.25952  0.56619  1.0000
  C   C167      1.0  0.01871  0.41452  0.47445  1.0000
  H   H309      1.0  0.44399  0.29433  0.46941  1.0000
  C   C168      1.0  0.23913  0.02986  0.64214  1.0000
  C   C169      1.0  0.00869  0.20122  0.59950  1.0000
  H   H310      1.0  0.15140  0.08414  0.65221  1.0000
  H   H311      1.0  0.14619  0.42556  0.49209  1.0000
  H   H312      1.0  0.14061  0.30555  0.52198  1.0000
  C   C170      1.0  0.34138  0.13258  0.63795  1.0000
  C   C171      1.0  0.32630  0.14110  0.65180  1.0000
  C   C172      1.0  0.29638  0.14975  0.64967  1.0000
  C   C173      1.0  0.28117  0.14970  0.63371  1.0000
  C   C174      1.0  0.29617  0.14108  0.61987  1.0000
  C   C175      1.0  0.32605  0.13236  0.62200  1.0000
  H   H313      1.0  0.33755  0.14084  0.66416  1.0000
  H   H314      1.0  0.28492  0.15647  0.66044  1.0000
  H   H315      1.0  0.28501  0.14148  0.60750  1.0000
  H   H316      1.0  0.33763  0.12583  0.61122  1.0000
  C   C176      1.0  0.05587  0.05401  0.58654  1.0000
  C   C177      1.0  0.01647  0.02339  0.58073  1.0000
  H   H317      1.0  0.11736  0.46558  0.48133  1.0000
  C   C178      1.0  0.42383  0.46366  0.46754  1.0000
  H   H318      1.0  0.19077  0.03612  0.60759  1.0000
  H   H319      1.0  0.10577  0.31337  0.54293  1.0000
  Fe  Fe28      1.0  0.28255  0.47570  0.50210  1.0000
  C   C179      1.0  0.05134  0.27975  0.55534  1.0000
  H   H320      1.0  0.37269  0.00792  0.69416  1.0000
  N   N12       1.0  0.13938  0.26272  0.55000  1.0000
  C   C180      1.0  0.17002  0.30295  0.54528  1.0000
  C   C181      1.0  0.14806  0.25221  0.56723  1.0000
  C   C182      1.0  0.14228  0.23644  0.53778  1.0000
  C   C183      1.0  0.09887  0.25693  0.54930  1.0000
  C   C184      1.0  0.17030  0.31543  0.52667  1.0000
  C   C185      1.0  0.11635  0.19313  0.54160  1.0000
  C   C186      1.0  0.15228  0.27869  0.58164  1.0000
  C   C187      1.0  0.16419  0.26632  0.59789  1.0000
  C   C188      1.0  0.19381  0.35876  0.52420  1.0000
  C   C189      1.0  0.11875  0.16958  0.52757  1.0000
  H   H321      1.0  0.19910  0.30667  0.54792  1.0000
  H   H322      1.0  0.16832  0.32410  0.55319  1.0000
  H   H323      1.0  0.12496  0.22332  0.57139  1.0000
  H   H324      1.0  0.17507  0.25048  0.56680  1.0000
  H   H325      1.0  0.17263  0.24235  0.53696  1.0000
  H   H326      1.0  0.13465  0.24176  0.52490  1.0000
  H   H327      1.0  0.07940  0.23259  0.55779  1.0000
  H   H328      1.0  0.18384  0.30300  0.51881  1.0000
  H   H329      1.0  0.08570  0.18547  0.54313  1.0000
  H   H330      1.0  0.12607  0.18463  0.55319  1.0000
  H   H331      1.0  0.17464  0.30867  0.57888  1.0000
  H   H332      1.0  0.12426  0.27701  0.58412  1.0000
  H   H333      1.0  0.16555  0.28473  0.60820  1.0000
  H   H334      1.0  0.14297  0.23624  0.60142  1.0000
  H   H335      1.0  0.19323  0.26926  0.59647  1.0000
  H   H336      1.0  0.22395  0.36955  0.52854  1.0000
  C   C190      1.0  0.02820  0.44206  0.50786  1.0000
  H   H337      1.0  0.18072  0.37281  0.53124  1.0000
  H   H338      1.0  0.03260  0.41767  0.51107  1.0000
  H   H339      1.0  0.04509  0.48867  0.49060  1.0000
  H   H340      1.0  0.10057  0.13874  0.53083  1.0000
  C   C191      1.0  0.47697  0.02170  0.69740  1.0000
  S   S53       1.0  0.23203  0.48125  0.49188  1.0000
  H   H341      1.0  0.38118  0.31811  0.46867  1.0000
  H   H342      1.0  0.19464  0.36670  0.51070  1.0000
  H   H343      1.0  0.14903  0.17587  0.52595  1.0000
  H   H344      1.0  0.01397  0.44524  0.53369  1.0000
  H   H345      1.0  0.27333  0.08469  0.58990  1.0000
  H   H346      1.0  0.49185  0.01688  0.66330  1.0000
  C   C192      1.0  0.20906  0.50068  0.50368  1.0000
  C   C193      1.0  0.05148  0.22037  0.60405  1.0000
  H   H347      1.0  0.00684  0.20519  0.58580  1.0000
  H   H348      1.0  0.06625  0.20948  0.59606  1.0000
  H   H349      1.0  0.03492  0.26610  0.54384  1.0000
  H   H350      1.0  0.42094  0.20315  0.64228  1.0000
  C   C194      1.0  0.09393  0.29165  0.55330  1.0000
  H   H351      1.0  0.49301  0.33583  0.48432  1.0000
  H   H352      1.0  0.06552  0.25175  0.60203  1.0000
  H   H353      1.0  0.35011  0.34200  0.48862  1.0000
  H   H354      1.0  0.35295  0.26170  0.64768  1.0000
  C   C195      1.0  0.46855  0.38013  0.64898  1.0000
  C   C196      1.0  0.36994  0.21771  0.69245  1.0000
  H   H355      1.0  0.10906  0.30575  0.56486  1.0000
  H   H356      1.0  0.22676  0.05901  0.57982  1.0000
  C   C197      1.0  0.33405  0.25607  0.61422  1.0000
  H   H357      1.0  0.26407  0.04763  0.57556  1.0000
  H   H358      1.0  0.39278  0.27515  0.68313  1.0000
  H   H359      1.0  0.32474  0.22589  0.61157  1.0000
  H   H360      1.0  0.44361  0.19240  0.61590  1.0000
  S   S54       1.0  0.30278  0.48564  0.52865  1.0000
  C   C198      1.0  0.48400  0.47633  0.48086  1.0000
  H   H361      1.0  0.30798  0.06135  0.65911  1.0000
  S   S55       1.0  0.48010  0.15192  0.70251  1.0000
  C   C199      1.0  0.00454  0.36808  0.70727  1.0000
  H   H362      1.0  0.02025  0.37079  0.69589  1.0000
  C   C200      1.0  0.18135  0.05583  0.64308  1.0000
  H   H363      1.0  0.34904  0.24052  0.67320  1.0000
  H   H364      1.0  0.12257  0.04505  0.63880  1.0000
  C   C201      1.0  0.45635  0.34089  0.64212  1.0000
  C   C202      1.0  0.30090  0.03403  0.65331  1.0000
  C   C203      1.0  0.49247  0.36300  0.48444  1.0000
  C   C204      1.0  0.08938  0.43958  0.47902  1.0000
  H   H365      1.0  0.10825  0.17580  0.51558  1.0000
  H   H366      1.0  0.25007  0.06079  0.64387  1.0000
  H   H367      1.0  0.44350  0.33921  0.62962  1.0000
  C   C205      1.0  0.44605  0.46993  0.48201  1.0000
  C   C206      1.0  0.40193  0.24210  0.66394  1.0000
  C   C207      1.0  0.23658  0.02681  0.59987  1.0000
  H   H368      1.0  0.23590  0.06814  0.61629  1.0000
  H   H369      1.0  0.48481  0.40149  0.46728  1.0000
  H   H370      1.0  0.45792  0.24015  0.60835  1.0000
  H   H371      1.0  0.44625  0.28233  0.62634  1.0000
  Fe  Fe29      1.0  0.49174  0.14329  0.67618  1.0000
  H   H372      1.0  0.19354  0.07677  0.63246  1.0000
  H   H373      1.0  0.20203  0.06624  0.65366  1.0000
  H   H374      1.0  0.33537  0.27118  0.60216  1.0000
  C   C208      1.0  0.05545  0.46817  0.49358  1.0000
  H   H375      1.0  0.41274  0.32041  0.48489  1.0000
  C   C209      1.0  0.41047  0.33673  0.47385  1.0000
  H   H376      1.0  0.08024  0.46258  0.70105  1.0000
  C   C210      1.0  0.41009  0.37246  0.48011  1.0000
  H   H377      1.0  0.07789  0.04544  0.58441  1.0000
  H   H378      1.0  0.39667  0.21130  0.62471  1.0000
  H   H379      1.0  0.00981  0.39303  0.48486  1.0000
  H   H380      1.0  0.48219  0.23246  0.62618  1.0000
  H   H381      1.0  0.43232  0.48967  0.70761  1.0000
  S   S56       1.0  0.47414  0.18377  0.66471  1.0000
  H   H382      1.0  0.31208  0.25681  0.62237  1.0000
  H   H383      1.0  0.06682  0.49893  0.69825  1.0000
  H   H384      1.0  0.44614  0.31210  0.66582  1.0000
  C   C211      1.0  0.37759  0.24617  0.67794  1.0000
  H   H385      1.0  0.06385  0.08061  0.57922  1.0000
  C   C212      1.0  0.42833  0.30853  0.65439  1.0000
  C   C213      1.0  0.42440  0.22261  0.63154  1.0000
  C   C214      1.0  0.37377  0.27523  0.62257  1.0000
  C   C215      1.0  0.45399  0.22211  0.61976  1.0000
  H   H386      1.0  0.40555  0.31510  0.65822  1.0000
  H   H387      1.0  0.42947  0.24675  0.66974  1.0000
  C   C216      1.0  0.43811  0.26332  0.63766  1.0000
  H   H388      1.0  0.39407  0.27341  0.61383  1.0000
  H   H389      1.0  0.38214  0.30550  0.62418  1.0000
  H   H390      1.0  0.14801  0.00542  0.62912  1.0000
  H   H391      1.0  0.38611  0.21169  0.66052  1.0000
  H   H392      1.0  0.43825  0.39305  0.48556  1.0000
  C   C217      1.0  0.37216  0.25596  0.63983  1.0000
  H   H393      1.0  0.35613  0.22454  0.63827  1.0000
  N   N13       1.0  0.41013  0.26790  0.64857  1.0000
  H   H394      1.0  0.43356  0.46856  0.49412  1.0000
  H   H395      1.0  0.35287  0.18802  0.68813  1.0000
  H   H396      1.0  0.05505  0.21367  0.61733  1.0000
  H   H397      1.0  0.01929  0.01778  0.56752  1.0000
  C   C218      1.0  0.37926  0.36182  0.49357  1.0000
  H   H398      1.0  0.48314  0.33931  0.64047  1.0000
  N   N14       1.0  0.49103  0.02992  0.71525  1.0000
  H   H399      1.0  0.05526  0.05957  0.60003  1.0000
  H   H400      1.0  0.44639  0.01538  0.69668  1.0000
  H   H401      1.0  0.49682  0.07887  0.68619  1.0000
  H   H402      1.0  0.37934  0.38798  0.49755  1.0000
  H   H403      1.0  0.45516  0.03055  0.66521  1.0000
  C   C219      1.0  0.11712  0.39983  0.49150  1.0000
  C   C220      1.0  0.21682  0.03748  0.61363  1.0000
  H   H404      1.0  0.29301  0.04966  0.62825  1.0000
  C   C221      1.0  0.14455  0.05493  0.64891  1.0000
  C   C222      1.0  0.08562  0.41067  0.49306  1.0000
  S   S57       1.0  0.47987  0.24724  0.70272  1.0000
  C   C223      1.0  0.03417  0.46432  0.52377  1.0000
  H   H405      1.0  0.46563  0.27251  0.64452  1.0000
  H   H406      1.0  0.35869  0.45638  0.71221  1.0000
  H   H407      1.0  0.08944  0.42376  0.50544  1.0000
  H   H408      1.0  0.38515  0.34833  0.50472  1.0000
  H   H409      1.0  0.28605  0.01042  0.66275  1.0000
  H   H410      1.0  0.04855  0.30526  0.55760  1.0000
  H   H411      1.0  0.02845  0.48827  0.52130  1.0000
  C   C224      1.0  0.27553  0.02728  0.63783  1.0000
  H   H412      1.0  0.08489  0.48573  0.49890  1.0000
  H   H413      1.0  0.06419  0.47582  0.52843  1.0000
  H   H414      1.0  0.44318  0.38427  0.65027  1.0000
  H   H415      1.0  0.11113  0.01760  0.60678  1.0000
  C   C225      1.0  0.17291  0.01575  0.63783  1.0000
  H   H416      1.0  0.13233  0.03577  0.66013  1.0000
  C   C226      1.0  0.08137  0.48779  0.70679  1.0000
  H   H417      1.0  0.30042  0.04341  0.71611  1.0000
  H   H418      1.0  0.40333  0.38683  0.46963  1.0000
  H   H419      1.0  0.26145  0.02458  0.60477  1.0000
  H   H420      1.0  0.11460  0.37997  0.50198  1.0000
  H   H421      1.0  0.35326  0.22178  0.70241  1.0000
  N   N15       1.0  0.05738  0.44921  0.47784  1.0000
  C   C227      1.0  0.48649  0.04044  0.66644  1.0000
  C   C228      1.0  0.99875  0.12474  0.57024  1.0000
  H   H422      1.0  0.99952  0.09220  0.61630  1.0000
  H   H423      1.0  0.11437  0.38560  0.47949  1.0000
  H   H424      1.0  0.48115  0.46350  0.71545  1.0000
  H   H425      1.0  0.32838  0.03543  0.64968  1.0000
  H   H426      1.0  0.47231  0.36082  0.49439  1.0000
  C   C229      1.0  0.99939  0.10088  0.60335  1.0000
  H   H427      1.0  0.22467  0.48764  0.52789  1.0000
  C   C230      1.0  0.20920  0.49962  0.52120  1.0000
  H   H428      1.0  0.48963  0.40266  0.64027  1.0000
  H   H429      1.0  0.48279  0.38344  0.66136  1.0000
  Fe  Fe30      1.0  0.46309  0.36954  0.94445  1.0000
  H   H430      1.0  0.34084  0.47458  0.72804  1.0000
  C   C231      1.0  0.21265  0.30716  0.86783  1.0000
  Fe  Fe31      1.0  0.47213  0.30232  0.93280  1.0000
  S   S58       1.0  0.47687  0.39810  0.91886  1.0000
  H   H431      1.0  0.04626  0.15300  0.80216  1.0000
  Fe  Fe32      1.0  0.43829  0.33899  0.90923  1.0000
  S   S59       1.0  0.39882  0.32456  0.88653  1.0000
  S   S60       1.0  0.42094  0.31135  0.93485  1.0000
  Fe  Fe33      1.0  0.17642  0.19220  0.86700  1.0000
  S   S61       1.0  0.19390  0.18549  0.84129  1.0000
  S   S62       1.0  0.21622  0.21751  0.88937  1.0000
  Fe  Fe34      1.0  0.09064  0.15430  0.85761  1.0000
  S   S63       1.0  0.10185  0.14542  0.83121  1.0000
  S   S64       1.0  0.03162  0.13625  0.86846  1.0000
  Fe  Fe35      1.0  0.14171  0.12667  0.84269  1.0000
  S   S65       1.0  0.14138  0.07506  0.83218  1.0000
  Fe  Fe36      1.0  0.15244  0.20475  0.83211  1.0000
  S   S66       1.0  0.16694  0.24341  0.80897  1.0000
  S   S67       1.0  0.12724  0.13165  0.86916  1.0000
  S   S68       1.0  0.13828  0.21547  0.85773  1.0000
  C   C232      1.0  0.42472  0.22952  0.89036  1.0000
  S   S69       1.0  0.46760  0.24601  0.94134  1.0000
  Fe  Fe37      1.0  0.14974  0.42060  0.77828  1.0000
  S   S70       1.0  0.16138  0.40892  0.75225  1.0000
  S   S71       1.0  0.14247  0.38700  0.80262  1.0000
  Fe  Fe38      1.0  0.20372  0.47199  0.75055  1.0000
  H   H432      1.0  0.37783  0.41893  0.87108  1.0000
  Fe  Fe39      1.0  0.11657  0.42478  0.74405  1.0000
  C   C233      1.0  0.25805  0.37936  0.80759  1.0000
  S   S72       1.0  0.19551  0.48252  0.77712  1.0000
  S   S73       1.0  0.10191  0.43198  0.77024  1.0000
  C   C234      1.0  0.28450  0.28609  0.82355  1.0000
  C   C235      1.0  0.06509  0.24694  0.87353  1.0000
  C   C236      1.0  0.38162  0.21629  0.88669  1.0000
  H   H433      1.0  0.22822  0.27962  0.84951  1.0000
  H   H434      1.0  0.31783  0.33379  0.84658  1.0000
  C   C237      1.0  0.11304  0.02891  0.86062  1.0000
  C   C238      1.0  0.11525  0.03091  0.84313  1.0000
  H   H435      1.0  0.03445  0.44702  0.75316  1.0000
  H   H436      1.0  0.12601  0.05482  0.86761  1.0000
  H   H437      1.0  0.04319  0.28746  0.75438  1.0000
  C   C239      1.0  0.15955  0.28296  0.80745  1.0000
  C   C240      1.0  0.14926  0.29603  0.82139  1.0000
  C   C241      1.0  0.14462  0.32830  0.81975  1.0000
  C   C242      1.0  0.14945  0.34719  0.80413  1.0000
  C   C243      1.0  0.15961  0.33401  0.79020  1.0000
  C   C244      1.0  0.16481  0.30209  0.79189  1.0000
  H   H438      1.0  0.14542  0.28162  0.83344  1.0000
  H   H439      1.0  0.13702  0.33856  0.83060  1.0000
  H   H440      1.0  0.16356  0.34845  0.77813  1.0000
  H   H441      1.0  0.17284  0.29212  0.78107  1.0000
  C   C245      1.0  0.34815  0.29444  0.88761  1.0000
  C   C246      1.0  0.32744  0.27955  0.87277  1.0000
  C   C247      1.0  0.28705  0.25568  0.87312  1.0000
  C   C248      1.0  0.26696  0.24710  0.88829  1.0000
  C   C249      1.0  0.28770  0.26189  0.90313  1.0000
  C   C250      1.0  0.32815  0.28530  0.90283  1.0000
  H   H442      1.0  0.34276  0.28626  0.86097  1.0000
  H   H443      1.0  0.27139  0.24371  0.86173  1.0000
  H   H444      1.0  0.27236  0.25519  0.91494  1.0000
  H   H445      1.0  0.34375  0.29666  0.91432  1.0000
  C   C251      1.0  0.47448  0.46615  0.95591  1.0000
  H   H446      1.0  0.02717  0.47204  0.80282  1.0000
  H   H447      1.0  0.01250  0.24031  0.86314  1.0000
  H   H448      1.0  0.26748  0.31320  0.86228  1.0000
  H   H449      1.0  0.23785  0.23963  0.81005  1.0000
  H   H450      1.0  0.24367  0.30303  0.81438  1.0000
  C   C252      1.0  0.21286  0.03793  0.85794  1.0000
  H   H451      1.0  0.29455  0.42260  0.78885  1.0000
  H   H452      1.0  0.22331  0.32861  0.83393  1.0000
  H   H453      1.0  0.02958  0.32017  0.74510  1.0000
  H   H454      1.0  0.47436  0.05161  0.74727  1.0000
  H   H455      1.0  0.18565  0.30227  0.86151  1.0000
  N   N16       1.0  0.35283  0.18957  0.89967  1.0000
  C   C253      1.0  0.31324  0.18174  0.89414  1.0000
  C   C254      1.0  0.36275  0.21040  0.91596  1.0000
  H   H456      1.0  0.47853  0.18255  0.95016  1.0000
  C   C255      1.0  0.35620  0.15393  0.90134  1.0000
  C   C256      1.0  0.31932  0.11634  0.90672  1.0000
  C   C257      1.0  0.30149  0.16721  0.87607  1.0000
  H   H457      1.0  0.25059  0.13959  0.86030  1.0000
  C   C258      1.0  0.33621  0.18913  0.93114  1.0000
  S   S74       1.0  0.39098  0.06205  0.72088  1.0000
  C   C259      1.0  0.32880  0.08475  0.91101  1.0000
  C   C260      1.0  0.25782  0.14820  0.87352  1.0000
  H   H458      1.0  0.31121  0.20815  0.89482  1.0000
  H   H459      1.0  0.29044  0.16118  0.90281  1.0000
  H   H460      1.0  0.39210  0.21733  0.92024  1.0000
  H   H461      1.0  0.36359  0.23829  0.91404  1.0000
  H   H462      1.0  0.31095  0.14649  0.87302  1.0000
  H   H463      1.0  0.36534  0.14787  0.88922  1.0000
  H   H464      1.0  0.37978  0.15856  0.91028  1.0000
  H   H465      1.0  0.29802  0.10628  0.89637  1.0000
  H   H466      1.0  0.30492  0.11974  0.91773  1.0000
  H   H467      1.0  0.28264  0.26532  0.79846  1.0000
  H   H468      1.0  0.32818  0.19895  0.95697  1.0000
  H   H469      1.0  0.30541  0.17893  0.92832  1.0000
  H   H470      1.0  0.34009  0.16473  0.93522  1.0000
  H   H471      1.0  0.03947  0.18098  0.78563  1.0000
  C   C261      1.0  0.43660  0.49676  0.72112  1.0000
  H   H472      1.0  0.38855  0.40580  0.94666  1.0000
  H   H473      1.0  0.30188  0.05795  0.91439  1.0000
  H   H474      1.0  0.39224  0.39918  0.85458  1.0000
  H   H475      1.0  0.34881  0.09267  0.92186  1.0000
  H   H476      1.0  0.24251  0.12235  0.88179  1.0000
  H   H477      1.0  0.24731  0.16827  0.87627  1.0000
  C   C262      1.0  0.34676  0.21514  0.94609  1.0000
  N   N17       1.0  0.01873  0.22526  0.82882  1.0000
  H   H478      1.0  0.00670  0.43105  0.77817  1.0000
  C   C263      1.0  0.04231  0.25040  0.85868  1.0000
  C   C264      1.0  0.04273  0.47426  0.75930  1.0000
  C   C265      1.0  0.06072  0.21032  0.80917  1.0000
  H   H479      1.0  0.44723  0.27825  0.87277  1.0000
  S   S75       1.0  0.48716  0.32675  0.90668  1.0000
  C   C266      1.0  0.01878  0.29009  0.82529  1.0000
  C   C267      1.0  0.05807  0.18197  0.79630  1.0000
  H   H480      1.0  0.06689  0.28025  0.82128  1.0000
  C   C268      1.0  0.32061  0.35893  0.83934  1.0000
  C   C269      1.0  0.26977  0.25402  0.81104  1.0000
  H   H481      1.0  0.06155  0.05679  0.84099  1.0000
  Fe  Fe40      1.0  0.14897  0.49317  0.76687  1.0000
  H   H482      1.0  0.07388  0.24025  0.84017  1.0000
  H   H483      1.0  0.24991  0.35582  0.79883  1.0000
  H   H484      1.0  0.04022  0.06553  0.82258  1.0000
  H   H485      1.0  0.08076  0.21099  0.81909  1.0000
  H   H486      1.0  0.07370  0.23884  0.80282  1.0000
  H   H487      1.0  0.26672  0.04185  0.73135  1.0000
  H   H488      1.0  0.01056  0.16983  0.82279  1.0000
  H   H489      1.0  0.05220  0.21675  0.87802  1.0000
  H   H490      1.0  0.46580  0.10714  0.73908  1.0000
  H   H491      1.0  0.34480  0.36677  0.83038  1.0000
  H   H492      1.0  0.27677  0.44010  0.80518  1.0000
  H   H493      1.0  0.23988  0.05715  0.85095  1.0000
  H   H494      1.0  0.36239  0.44609  0.73422  1.0000
  C   C270      1.0  0.48976  0.22441  0.93039  1.0000
  C   C271      1.0  0.03887  0.04300  0.83134  1.0000
  H   H495      1.0  0.09569  0.25775  0.86995  1.0000
  H   H496      1.0  0.34235  0.07944  0.90012  1.0000
  H   H497      1.0  0.35816  0.36817  0.87043  1.0000
  H   H498      1.0  0.01876  0.38180  0.74909  1.0000
  H   H499      1.0  0.35861  0.35944  0.95622  1.0000
  H   H500      1.0  0.48681  0.49518  0.74376  1.0000
  C   C272      1.0  0.04505  0.48138  0.79125  1.0000
  H   H501      1.0  0.42935  0.20492  0.89291  1.0000
  H   H502      1.0  0.44263  0.23515  0.86422  1.0000
  H   H503      1.0  0.25393  0.36509  0.84734  1.0000
  C   C273      1.0  0.36766  0.39458  0.86259  1.0000
  N   N18       1.0  0.28407  0.34923  0.82979  1.0000
  H   H504      1.0  0.08740  0.19097  0.79138  1.0000
  H   H505      1.0  0.01766  0.11634  0.83335  1.0000
  H   H506      1.0  0.31529  0.19170  0.86694  1.0000
  H   H507      1.0  0.39123  0.46285  0.96035  1.0000
  H   H508      1.0  0.23210  0.37328  0.81493  1.0000
  H   H509      1.0  0.43491  0.24805  0.90131  1.0000
  H   H510      1.0  0.22532  0.33437  0.87456  1.0000
  H   H511      1.0  0.37741  0.22597  0.94971  1.0000
  H   H512      1.0  0.01758  0.29177  0.83904  1.0000
  H   H513      1.0  0.07407  0.48647  0.76201  1.0000
  H   H514      1.0  0.34466  0.41947  0.84514  1.0000
  C   C274      1.0  0.26947  0.41568  0.79703  1.0000
  H   H515      1.0  0.31068  0.38689  0.86057  1.0000
  H   H516      1.0  0.00010  0.19333  0.80606  1.0000
  H   H517      1.0  0.37558  0.20265  0.87432  1.0000
  H   H518      1.0  0.29713  0.40820  0.82760  1.0000
  H   H519      1.0  0.27169  0.27336  0.83588  1.0000
  H   H520      1.0  0.06444  0.26402  0.88400  1.0000
  C   C275      1.0  0.36399  0.46800  0.72499  1.0000
  H   H521      1.0  0.05626  0.28107  0.85499  1.0000
  H   H522      1.0  0.34218  0.23963  0.94301  1.0000
  C   C276      1.0  0.25036  0.33911  0.84128  1.0000
  H   H523      1.0  0.31791  0.39436  0.81160  1.0000
  C   C277      1.0  0.00389  0.37472  0.73720  1.0000
  C   C278      1.0  0.27240  0.02451  0.72251  1.0000
  H   H524      1.0  0.04439  0.02320  0.82409  1.0000
  C   C279      1.0  0.45033  0.25275  0.87553  1.0000
  H   H525      1.0  0.37886  0.24231  0.88480  1.0000
  C   C280      1.0  0.04339  0.33070  0.81819  1.0000
  H   H526      1.0  0.29070  0.32925  0.80577  1.0000
  C   C281      1.0  0.99930  0.02200  0.83967  1.0000
  H   H527      1.0  0.31628  0.29826  0.82441  1.0000
  C   C282      1.0  0.48846  0.06434  0.72030  1.0000
  C   C283      1.0  0.01958  0.46240  0.77609  1.0000
  H   H528      1.0  0.27776  0.23243  0.81535  1.0000
  C   C284      1.0  0.02446  0.37834  0.72257  1.0000
  S   S76       1.0  0.07449  0.39367  0.72290  1.0000
  C   C285      1.0  0.36016  0.38704  0.95279  1.0000
  H   H529      1.0  0.03504  0.19804  0.84857  1.0000
  H   H530      1.0  0.20536  0.28367  0.87722  1.0000
  C   C286      1.0  0.29143  0.38422  0.81942  1.0000
  H   H531      1.0  0.04574  0.29519  0.73197  1.0000
  C   C287      1.0  0.33423  0.39164  0.85190  1.0000
  H   H532      1.0  0.24483  0.41145  0.78893  1.0000
  H   H533      1.0  0.07588  0.46370  0.73151  1.0000
  H   H534      1.0  0.02164  0.36832  0.96219  1.0000
  C   C288      1.0  0.24149  0.30813  0.85512  1.0000
  H   H535      1.0  0.34276  0.44268  0.95311  1.0000
  C   C289      1.0  0.36046  0.44506  0.96440  1.0000
  S   S77       1.0  0.16016  0.48707  0.74011  1.0000
  H   H536      1.0  0.27756  0.48683  0.77240  1.0000
  H   H537      1.0  0.47593  0.45623  0.94367  1.0000
  C   C290      1.0  0.49087  0.19295  0.93782  1.0000
  H   H538      1.0  0.33665  0.38161  0.94377  1.0000
  C   C291      1.0  0.03493  0.26400  0.82002  1.0000
  C   C292      1.0  0.04301  0.22720  0.84382  1.0000
  C   C293      1.0  0.27476  0.31744  0.81782  1.0000
  H   H539      1.0  0.43140  0.46996  0.72777  1.0000
  N   N19       1.0  0.03641  0.50069  0.74751  1.0000
  H   H540      1.0  0.37039  0.00705  0.74789  1.0000
  C   C294      1.0  0.02035  0.19819  0.81667  1.0000
  H   H541      1.0  0.07255  0.34425  0.82393  1.0000
  H   H542      1.0  0.17856  0.01443  0.83610  1.0000
  H   H543      1.0  0.48463  0.02181  0.94376  1.0000
  C   C295      1.0  0.37330  0.01230  0.72094  1.0000
  C   C296      1.0  0.49626  0.07474  0.73906  1.0000
  H   H544      1.0  0.30058  0.45912  0.96575  1.0000
  H   H545      1.0  0.06766  0.47304  0.79264  1.0000
  H   H546      1.0  0.19790  0.05420  0.86061  1.0000
  H   H547      1.0  0.48104  0.26255  0.87860  1.0000
  C   C297      1.0  0.06114  0.47600  0.72381  1.0000
  C   C298      1.0  0.02893  0.29271  0.74339  1.0000
  S   S78       1.0  0.26217  0.50036  0.73775  1.0000
  C   C299      1.0  0.18643  0.00346  0.84755  1.0000
  H   H548      1.0  0.21997  0.02860  0.87005  1.0000
  H   H549      1.0  0.02975  0.34804  0.82109  1.0000
  H   H550      1.0  0.04642  0.33082  0.80437  1.0000
  H   H551      1.0  0.02964  0.26092  0.80626  1.0000
  H   H552      1.0  0.29918  0.00552  0.74074  1.0000
  C   C300      1.0  0.49465  0.11098  0.74237  1.0000
  H   H553      1.0  0.03081  0.45333  0.72196  1.0000
  H   H554      1.0  0.45942  0.06031  0.71724  1.0000
  Fe  Fe41      1.0  0.12729  0.52409  0.02402  1.0000
  S   S79       1.0  0.14987  0.58145  0.03622  1.0000
  C   C301      1.0  0.28539  0.52359  0.99899  1.0000
  Fe  Fe42      1.0  0.35662  0.86761  0.99354  1.0000
  S   S80       1.0  0.38448  0.88234  0.01880  1.0000
  C   C302      1.0  0.49212  0.98207  0.98080  1.0000
  Fe  Fe43      1.0  0.28654  0.79461  0.00723  1.0000
  S   S81       1.0  0.30973  0.80445  0.03340  1.0000
  S   S82       1.0  0.22914  0.74438  0.99958  1.0000
  Fe  Fe44      1.0  0.32519  0.86570  0.02848  1.0000
  S   S83       1.0  0.31822  0.90136  0.04837  1.0000
  Fe  Fe45      1.0  0.36642  0.82006  0.02124  1.0000
  S   S84       1.0  0.40440  0.79920  0.03352  1.0000
  S   S85       1.0  0.29832  0.85491  0.00303  1.0000
  S   S86       1.0  0.34222  0.80624  0.99529  1.0000
  S   S87       1.0  0.17833  0.96896  0.10201  1.0000
  C   C303      1.0  0.25062  0.81527  0.07023  1.0000
  Fe  Fe46      1.0  0.11912  0.96283  0.10146  1.0000
  S   S88       1.0  0.06640  0.91744  0.11536  1.0000
  H   H555      1.0  0.08900  0.00043  0.02308  1.0000
  Fe  Fe47      1.0  0.42130  0.58649  0.02348  1.0000
  S   S89       1.0  0.43021  0.60448  0.99638  1.0000
  S   S90       1.0  0.36381  0.55081  0.03653  1.0000
  Fe  Fe48      1.0  0.47343  0.66204  0.00572  1.0000
  H   H556      1.0  0.28514  0.50292  0.04668  1.0000
  H   H557      1.0  0.30962  0.96444  0.99875  1.0000
  S   S91       1.0  0.46153  0.64483  0.03290  1.0000
  S   S92       1.0  0.46636  0.56856  0.02370  1.0000
  H   H558      1.0  0.24988  0.95587  0.07760  1.0000
  H   H559      1.0  0.11598  0.67090  0.03946  1.0000
  H   H560      1.0  0.40612  0.51745  0.97726  1.0000
  H   H561      1.0  0.44450  0.69334  0.06922  1.0000
  C   C304      1.0  0.02651  0.88294  0.08674  1.0000
  C   C305      1.0  0.02442  0.89102  0.10345  1.0000
  H   H562      1.0  0.38653  0.96579  0.99542  1.0000
  H   H563      1.0  0.05437  0.89321  0.08086  1.0000
  H   H564      1.0  0.35041  0.94324  0.01072  1.0000
  C   C306      1.0  0.42331  0.77566  0.02191  1.0000
  C   C307      1.0  0.44453  0.76101  0.03029  1.0000
  C   C308      1.0  0.45918  0.74119  0.02159  1.0000
  C   C309      1.0  0.45318  0.73634  0.00436  1.0000
  H   H565      1.0  0.28578  0.54665  0.19512  1.0000
  C   C310      1.0  0.41746  0.77097  0.00464  1.0000
  H   H566      1.0  0.44964  0.76502  0.04360  1.0000
  S   S93       1.0  0.13662  0.51643  0.99719  1.0000
  H   H567      1.0  0.16313  0.85718  0.02683  1.0000
  C   C311      1.0  0.28352  0.91668  0.04947  1.0000
  C   C312      1.0  0.27899  0.93096  0.06459  1.0000
  C   C313      1.0  0.25298  0.94493  0.06588  1.0000
  C   C314      1.0  0.23152  0.94527  0.05195  1.0000
  C   C315      1.0  0.23612  0.93103  0.03680  1.0000
  C   C316      1.0  0.26183  0.91669  0.03556  1.0000
  H   H568      1.0  0.29583  0.93136  0.07540  1.0000
  H   H569      1.0  0.13278  0.68359  0.01805  1.0000
  H   H570      1.0  0.02982  0.59399  0.99552  1.0000
  H   H571      1.0  0.26566  0.90663  0.02375  1.0000
  H   H572      1.0  0.39853  0.66638  0.07972  1.0000
  C   C317      1.0  0.45500  0.94982  0.98161  1.0000
  H   H573      1.0  0.44710  0.92957  0.99203  1.0000
  H   H574      1.0  0.09437  0.71992  0.03802  1.0000
  C   C318      1.0  0.32037  0.53973  0.00787  1.0000
  H   H575      1.0  0.18157  0.81661  0.97762  1.0000
  C   C319      1.0  0.42255  0.85587  0.20659  1.0000
  C   C320      1.0  0.14629  0.84098  0.03808  1.0000
  H   H576      1.0  0.34722  0.55784  0.00141  1.0000
  H   H577      1.0  0.29328  0.58592  0.02787  1.0000
  C   C321      1.0  0.06914  0.96933  0.02511  1.0000
  C   C322      1.0  0.17628  0.62615  0.02556  1.0000
  C   C323      1.0  0.17625  0.62970  0.00809  1.0000
  C   C324      1.0  0.19347  0.66611  0.00017  1.0000
  C   C325      1.0  0.21250  0.69920  0.00959  1.0000
  C   C326      1.0  0.21435  0.69558  0.02701  1.0000
  C   C327      1.0  0.19579  0.65924  0.03496  1.0000
  H   H578      1.0  0.16210  0.60439  0.00074  1.0000
  H   H579      1.0  0.19206  0.66871  0.98669  1.0000
  H   H580      1.0  0.22872  0.72081  0.03441  1.0000
  H   H581      1.0  0.19609  0.65673  0.04848  1.0000
  C   C328      1.0  0.44308  0.98675  0.02045  1.0000
  H   H582      1.0  0.41674  0.64247  0.06691  1.0000
  H   H583      1.0  0.02950  0.53415  0.01801  1.0000
  H   H584      1.0  0.22176  0.81604  0.98770  1.0000
  H   H585      1.0  0.38434  0.66994  0.98793  1.0000
  H   H586      1.0  0.23101  0.79530  0.08010  1.0000
  H   H587      1.0  0.09625  0.61408  0.00873  1.0000
  H   H588      1.0  0.12031  0.78430  0.04962  1.0000
  H   H589      1.0  0.21410  0.57239  0.04617  1.0000
  H   H590      1.0  0.47532  0.99600  0.04376  1.0000
  H   H591      1.0  0.42833  0.74844  0.98251  1.0000
  C   C329      1.0  0.19872  0.82350  0.98934  1.0000
  H   H592      1.0  0.40274  0.79606  0.21265  1.0000
  H   H593      1.0  0.31673  0.91999  0.97968  1.0000
  H   H594      1.0  0.07135  0.65634  0.98648  1.0000
  H   H595      1.0  0.43168  0.96480  0.01087  1.0000
  H   H596      1.0  0.30302  0.61923  0.00266  1.0000
  H   H597      1.0  0.21991  0.93147  0.02590  1.0000
  H   H598      1.0  0.36041  0.62339  0.02010  1.0000
  H   H599      1.0  0.16286  0.85530  0.04942  1.0000
  C   C330      1.0  0.46119  0.97368  0.03428  1.0000
  C   C331      1.0  0.01719  0.98150  0.03641  1.0000
  H   H600      1.0  0.05997  0.97407  0.05092  1.0000
  H   H601      1.0  0.05436  0.98143  0.15713  1.0000
  C   C332      1.0  0.33702  0.97429  0.99173  1.0000
  H   H602      1.0  0.32162  0.55359  0.21073  1.0000
  H   H603      1.0  0.11744  0.87442  0.03871  1.0000
  H   H604      1.0  0.44854  0.93182  0.20483  1.0000
  C   C333      1.0  0.04923  0.58427  0.99045  1.0000
  C   C334      1.0  0.43273  0.75174  0.99588  1.0000
  H   H605      1.0  0.09180  0.82877  0.04954  1.0000
  C   C335      1.0  0.17254  0.80039  0.00404  1.0000
  H   H606      1.0  0.47562  0.73016  0.02816  1.0000
  N   N20       1.0  0.33112  0.64383  0.03582  1.0000
  C   C336      1.0  0.35402  0.64092  0.05048  1.0000
  C   C337      1.0  0.29182  0.60821  0.03518  1.0000
  C   C338      1.0  0.35289  0.64658  0.02000  1.0000
  C   C339      1.0  0.32700  0.67892  0.03640  1.0000
  C   C340      1.0  0.30592  0.68187  0.05189  1.0000
  C   C341      1.0  0.39513  0.67513  0.05277  1.0000
  C   C342      1.0  0.33201  0.64498  0.00320  1.0000
  C   C343      1.0  0.27319  0.58780  0.05215  1.0000
  C   C344      1.0  0.23086  0.55822  0.04998  1.0000
  C   C345      1.0  0.30710  0.72021  0.05185  1.0000
  C   C346      1.0  0.41478  0.66879  0.06813  1.0000
  H   H607      1.0  0.09222  0.83172  0.02682  1.0000
  H   H608      1.0  0.35666  0.61485  0.04942  1.0000
  H   H609      1.0  0.33903  0.63728  0.06253  1.0000
  H   H610      1.0  0.27091  0.61436  0.02827  1.0000
  C   C347      1.0  0.07523  0.58470  0.00517  1.0000
  C   C348      1.0  0.10953  0.84391  0.03828  1.0000
  H   H611      1.0  0.38075  0.67386  0.01930  1.0000
  H   H612      1.0  0.35565  0.70528  0.03514  1.0000
  H   H613      1.0  0.31027  0.68038  0.02543  1.0000
  H   H614      1.0  0.31918  0.67908  0.06374  1.0000
  H   H615      1.0  0.27501  0.65954  0.05160  1.0000
  H   H616      1.0  0.41351  0.67890  0.04185  1.0000
  H   H617      1.0  0.39418  0.70175  0.05457  1.0000
  H   H618      1.0  0.32871  0.67056  0.00139  1.0000
  H   H619      1.0  0.25771  0.84479  0.07304  1.0000
  H   H620      1.0  0.28831  0.57274  0.05721  1.0000
  H   H621      1.0  0.27461  0.60769  0.06168  1.0000
  H   H622      1.0  0.21880  0.54206  0.06195  1.0000
  H   H623      1.0  0.37653  0.50681  0.00895  1.0000
  Fe  Fe49      1.0  0.47890  0.59150  0.99724  1.0000
  H   H624      1.0  0.28947  0.72070  0.06238  1.0000
  H   H625      1.0  0.33722  0.74374  0.05338  1.0000
  H   H626      1.0  0.29524  0.72496  0.03993  1.0000
  H   H627      1.0  0.08214  0.66316  0.02278  1.0000
  C   C349      1.0  0.42323  0.81897  0.20394  1.0000
  H   H628      1.0  0.26250  0.58121  0.21218  1.0000
  H   H629      1.0  0.40150  0.78242  0.99801  1.0000
  H   H630      1.0  0.22782  0.53801  0.04026  1.0000
  H   H631      1.0  0.07499  0.53783  0.97773  1.0000
  H   H632      1.0  0.21203  0.85459  0.99132  1.0000
  H   H633      1.0  0.06856  0.00146  0.08769  1.0000
  H   H634      1.0  0.27788  0.81409  0.07047  1.0000
  N   N21       1.0  0.17073  0.79218  0.03640  1.0000
  C   C350      1.0  0.13670  0.79869  0.03792  1.0000
  C   C351      1.0  0.15762  0.74989  0.03673  1.0000
  C   C352      1.0  0.19599  0.80930  0.05153  1.0000
  C   C353      1.0  0.19446  0.81147  0.02088  1.0000
  C   C354      1.0  0.05092  0.56414  0.02071  1.0000
  C   C355      1.0  0.03871  0.98525  0.09264  1.0000
  C   C356      1.0  0.23195  0.80419  0.05298  1.0000
  C   C357      1.0  0.11724  0.72250  0.02938  1.0000
  C   C358      1.0  0.11177  0.68263  0.02733  1.0000
  H   H635      1.0  0.00409  0.97388  0.02375  1.0000
  S   S94       1.0  0.19924  0.96370  0.05264  1.0000
  H   H636      1.0  0.20922  0.84297  0.02181  1.0000
  H   H637      1.0  0.02238  0.94610  0.07275  1.0000
  H   H638      1.0  0.17917  0.74482  0.03022  1.0000
  H   H639      1.0  0.15651  0.73893  0.04983  1.0000
  H   H640      1.0  0.17860  0.79741  0.06324  1.0000
  H   H641      1.0  0.20772  0.84064  0.05164  1.0000
  C   C359      1.0  0.32046  0.53215  0.02506  1.0000
  H   H642      1.0  0.21832  0.80485  0.01979  1.0000
  C   C360      1.0  0.47334  0.51127  0.05897  1.0000
  H   H643      1.0  0.16247  0.77003  0.00166  1.0000
  H   H644      1.0  0.39038  0.96656  0.03480  1.0000
  H   H645      1.0  0.25357  0.82318  0.04352  1.0000
  H   H646      1.0  0.22513  0.77450  0.05092  1.0000
  S   S95       1.0  0.47177  0.71211  0.99307  1.0000
  H   H647      1.0  0.11252  0.73254  0.01700  1.0000
  H   H648      1.0  0.38462  0.69789  0.20327  1.0000
  H   H649      1.0  0.28550  0.52921  0.98564  1.0000
  H   H650      1.0  0.35836  0.61844  0.98904  1.0000
  H   H651      1.0  0.14768  0.80548  0.00390  1.0000
  C   C361      1.0  0.29271  0.55077  0.20867  1.0000
  H   H652      1.0  0.06989  0.56398  0.03098  1.0000
  C   C362      1.0  0.13019  0.71902  0.97050  1.0000
  H   H653      1.0  0.11583  0.78535  0.02761  1.0000
  C   C363      1.0  0.01095  0.96282  0.07867  1.0000
  H   H654      1.0  0.01344  0.85833  0.14431  1.0000
  H   H655      1.0  0.32177  0.66366  0.21689  1.0000
  H   H656      1.0  0.02998  0.55416  0.98724  1.0000
  H   H657      1.0  0.09150  0.57016  0.00188  1.0000
  H   H658      1.0  0.44284  0.87733  0.19734  1.0000
  H   H659      1.0  0.41446  0.80965  0.19091  1.0000
  C   C364      1.0  0.36671  0.97053  0.00332  1.0000
  H   H660      1.0  0.03787  0.96565  0.10283  1.0000
  H   H661      1.0  0.03720  0.95868  0.13740  1.0000
  H   H662      1.0  0.25756  0.63263  0.21313  1.0000
  S   S96       1.0  0.12115  0.97662  0.07402  1.0000
  H   H663      1.0  0.48336  0.96826  0.02875  1.0000
  C   C365      1.0  0.04171  0.96198  0.03972  1.0000
  C   C366      1.0  0.41073  0.99284  0.02748  1.0000
  H   H664      1.0  0.31277  0.61057  0.20610  1.0000
  C   C367      1.0  0.02341  0.83733  0.14647  1.0000
  C   C368      1.0  0.28531  0.50887  0.03337  1.0000
  C   C369      1.0  0.48058  0.51720  0.97354  1.0000
  H   H665      1.0  0.04198  0.84557  0.15779  1.0000
  C   C370      1.0  0.35522  0.64423  0.98829  1.0000
  H   H666      1.0  0.36636  0.52240  0.98362  1.0000
  H   H667      1.0  0.30514  0.95262  0.96870  1.0000
  N   N22       1.0  0.06967  0.60760  0.97498  1.0000
  H   H668      1.0  0.45281  0.82344  0.20594  1.0000
  C   C371      1.0  0.09054  0.64918  0.97931  1.0000
  H   H669      1.0  0.08688  0.95564  0.02800  1.0000
  H   H670      1.0  0.33712  0.98004  0.03031  1.0000
  H   H671      1.0  0.34009  0.64379  0.97646  1.0000
  C   C372      1.0  0.49219  0.88290  0.97624  1.0000
  H   H672      1.0  0.39296  0.85023  0.20372  1.0000
  H   H673      1.0  0.12384  0.60758  0.97750  1.0000
  H   H674      1.0  0.11096  0.72599  0.97769  1.0000
  H   H675      1.0  0.43900  0.94689  0.04058  1.0000
  Fe  Fe50      1.0  0.18237  0.98729  0.07482  1.0000
  C   C373      1.0  0.42826  0.94376  0.96893  1.0000
  C   C374      1.0  0.00389  0.98303  0.14751  1.0000
  H   H676      1.0  0.02352  0.93067  0.04151  1.0000
  H   H677      1.0  0.15473  0.72278  0.97855  1.0000
  S   S97       1.0  0.49078  0.56484  0.97505  1.0000
  C   C375      1.0  0.04198  0.98340  0.14485  1.0000
  C   C376      1.0  0.32768  0.95041  0.97616  1.0000
  H   H678      1.0  0.00069  0.77807  0.15255  1.0000
  C   C377      1.0  0.29223  0.58636  0.21423  1.0000
  H   H679      1.0  0.35383  0.96090  0.96819  1.0000
  H   H680      1.0  0.04117  0.83863  0.13559  1.0000
  H   H681      1.0  0.49313  0.86132  0.98492  1.0000
  H   H682      1.0  0.03557  0.57887  0.02511  1.0000
  C   C378      1.0  0.00595  0.99003  0.06603  1.0000
  S   S98       1.0  0.38087  0.90439  0.96988  1.0000
  H   H683      1.0  0.38336  0.89627  0.21337  1.0000
  H   H684      1.0  0.11511  0.65537  0.98785  1.0000
  H   H685      1.0  0.05267  0.95718  0.01345  1.0000
  C   C379      1.0  0.37491  0.50705  0.97486  1.0000
  H   H686      1.0  0.47804  0.54027  0.06126  1.0000
  H   H687      1.0  0.27063  0.52510  0.21569  1.0000
  C   C380      1.0  0.39647  0.70694  0.21601  1.0000
  H   H688      1.0  0.42738  0.71483  0.21589  1.0000
  C   C381      1.0  0.09896  0.59755  0.96875  1.0000
  H   H689      1.0  0.46378  0.86937  0.96980  1.0000
  H   H690      1.0  0.02228  0.64138  0.96809  1.0000
  H   H691      1.0  0.49490  0.90669  0.98378  1.0000
  H   H692      1.0  0.20289  0.64602  0.21707  1.0000
  Fe  Fe51      1.0  0.15164  0.92979  0.32805  1.0000
  S   S99       1.0  0.13909  0.90723  0.35461  1.0000
  S   S100      1.0  0.16791  0.90453  0.30669  1.0000
  N   N23       1.0  0.43111  0.90394  0.22929  1.0000
  S   S101      1.0  0.12471  0.97855  0.36244  1.0000
  Fe  Fe52      1.0  0.17563  0.96886  0.36147  1.0000
  H   H693      1.0  0.28982  0.58517  0.29654  1.0000
  Fe  Fe53      1.0  0.08956  0.91908  0.35306  1.0000
  S   S102      1.0  0.03063  0.88078  0.36481  1.0000
  H   H694      1.0  0.22779  0.79425  0.32488  1.0000
  S   S103      1.0  0.09924  0.93676  0.32589  1.0000
  S   S104      1.0  0.36240  0.55008  0.28412  1.0000
  Fe  Fe54      1.0  0.18289  0.70437  0.24901  1.0000
  S   S105      1.0  0.17912  0.68867  0.27621  1.0000
  S   S106      1.0  0.24068  0.73148  0.23552  1.0000
  Fe  Fe55      1.0  0.09449  0.66411  0.24531  1.0000
  S   S107      1.0  0.08475  0.64476  0.27250  1.0000
  H   H695      1.0  0.01500  0.94179  0.37402  1.0000
  Fe  Fe56      1.0  0.13262  0.70445  0.27765  1.0000
  S   S108      1.0  0.12948  0.73224  0.30160  1.0000
  Fe  Fe57      1.0  0.13244  0.63099  0.26886  1.0000
  S   S109      1.0  0.13676  0.58219  0.28150  1.0000
  S   S110      1.0  0.13978  0.72498  0.25067  1.0000
  S   S111      1.0  0.13840  0.64552  0.24146  1.0000
  Fe  Fe58      1.0  0.45259  0.80602  0.26627  1.0000
  S   S112      1.0  0.46024  0.79304  0.24009  1.0000
  S   S113      1.0  0.39911  0.80619  0.27544  1.0000
  H   H696      1.0  0.04984  0.95096  0.34686  1.0000
  C   C382      1.0  0.02987  0.98773  0.35629  1.0000
  C   C383      1.0  0.28373  0.74911  0.24728  1.0000
  C   C384      1.0  0.31734  0.75361  0.23965  1.0000
  C   C385      1.0  0.35255  0.76950  0.24841  1.0000
  C   C386      1.0  0.35468  0.78219  0.26468  1.0000
  C   C387      1.0  0.32103  0.77749  0.27233  1.0000
  C   C388      1.0  0.28559  0.76062  0.26375  1.0000
  S   S114      1.0  0.05125  0.65180  0.22406  1.0000
  H   H697      1.0  0.37820  0.77292  0.24240  1.0000
  H   H698      1.0  0.32246  0.78730  0.28490  1.0000
  H   H699      1.0  0.26003  0.75776  0.26967  1.0000
  H   H700      1.0  0.33988  0.96233  0.45086  1.0000
  H   H701      1.0  0.27059  0.83194  0.31486  1.0000
  C   C389      1.0  0.39110  0.59203  0.27206  1.0000
  C   C390      1.0  0.40981  0.62710  0.28004  1.0000
  C   C391      1.0  0.43358  0.66101  0.27091  1.0000
  C   C392      1.0  0.44018  0.65992  0.25386  1.0000
  C   C393      1.0  0.42199  0.62478  0.24591  1.0000
  C   C394      1.0  0.39698  0.59098  0.25491  1.0000
  H   H702      1.0  0.40566  0.62805  0.29334  1.0000
  H   H703      1.0  0.44739  0.68784  0.27714  1.0000
  H   H704      1.0  0.38317  0.56403  0.24869  1.0000
  C   C395      1.0  0.37447  0.67464  0.22893  1.0000
  C   C396      1.0  0.10133  0.51781  0.46533  1.0000
  C   C397      1.0  0.17866  0.54553  0.27851  1.0000
  C   C398      1.0  0.15675  0.55940  0.27011  1.0000
  C   C399      1.0  0.14874  0.55236  0.25310  1.0000
  C   C400      1.0  0.16212  0.53116  0.24461  1.0000
  H   H705      1.0  0.18481  0.55069  0.29170  1.0000
  H   H706      1.0  0.13143  0.56245  0.24657  1.0000
  C   C401      1.0  0.19386  0.64336  0.37482  1.0000
  H   H707      1.0  0.37720  0.64991  0.22522  1.0000
  H   H708      1.0  0.20250  0.63411  0.23906  1.0000
  H   H709      1.0  0.00241  0.52620  0.44204  1.0000
  H   H710      1.0  0.00654  0.80275  0.34327  1.0000
  H   H711      1.0  0.26142  0.63844  0.25157  1.0000
  C   C402      1.0  0.15765  0.85671  0.30564  1.0000
  C   C403      1.0  0.14776  0.83263  0.31987  1.0000
  C   C404      1.0  0.13940  0.79461  0.31843  1.0000
  C   C405      1.0  0.14088  0.78038  0.30279  1.0000
  C   C406      1.0  0.15110  0.80458  0.28860  1.0000
  C   C407      1.0  0.15959  0.84261  0.29005  1.0000
  H   H712      1.0  0.14641  0.84323  0.33196  1.0000
  H   H713      1.0  0.13164  0.77607  0.32949  1.0000
  H   H714      1.0  0.15247  0.79402  0.27649  1.0000
  H   H715      1.0  0.16743  0.86113  0.27898  1.0000
  H   H716      1.0  0.33610  0.92385  0.38571  1.0000
  C   C408      1.0  0.02329  0.53077  0.23303  1.0000
  H   H717      1.0  0.34895  0.63567  0.25784  1.0000
  H   H718      1.0  0.07111  0.79439  0.32625  1.0000
  H   H719      1.0  0.46516  0.87644  0.22604  1.0000
  H   H720      1.0  0.23603  0.86198  0.36675  1.0000
  H   H721      1.0  0.37677  0.94479  0.37131  1.0000
  C   C409      1.0  0.18419  0.51747  0.25296  1.0000
  C   C410      1.0  0.44166  0.91181  0.24753  1.0000
  C   C411      1.0  0.12425  0.52811  0.32341  1.0000
  C   C412      1.0  0.48933  0.99412  0.45148  1.0000
  C   C413      1.0  0.10749  0.54279  0.44961  1.0000
  H   H722      1.0  0.38870  0.68458  0.24122  1.0000
  C   C414      1.0  0.30977  0.92264  0.35241  1.0000
  H   H723      1.0  0.38715  0.91984  0.23208  1.0000
  H   H724      1.0  0.19242  0.85919  0.38892  1.0000
  S   S115      1.0  0.47154  0.70179  0.24226  1.0000
  H   H725      1.0  0.08192  0.62789  0.34526  1.0000
  H   H726      1.0  0.04257  0.97678  0.39772  1.0000
  H   H727      1.0  0.15586  0.66700  0.35204  1.0000
  C   C415      1.0  0.33017  0.95619  0.36460  1.0000
  H   H728      1.0  0.00137  0.71297  0.30914  1.0000
  H   H729      1.0  0.30348  0.63425  0.29176  1.0000
  H   H730      1.0  0.19436  0.90201  0.38060  1.0000
  H   H731      1.0  0.38007  0.83271  0.44618  1.0000
  C   C416      1.0  0.25235  0.64130  0.22538  1.0000
  H   H732      1.0  0.48394  0.64044  0.43719  1.0000
  H   H733      1.0  0.02702  0.55984  0.23387  1.0000
  H   H734      1.0  0.32363  0.66011  0.26271  1.0000
  H   H735      1.0  0.33160  0.68962  0.23545  1.0000
  H   H736      1.0  0.21578  0.90188  0.34587  1.0000
  H   H737      1.0  0.22401  0.82781  0.31072  1.0000
  C   C417      1.0  0.05123  0.83505  0.30526  1.0000
  H   H738      1.0  0.33244  0.92463  0.34375  1.0000
  C   C418      1.0  0.48406  0.58097  0.28023  1.0000
  H   H739      1.0  0.40504  0.83590  0.46552  1.0000
  C   C419      1.0  0.07110  0.88982  0.28397  1.0000
  H   H740      1.0  0.42618  0.88495  0.25527  1.0000
  C   C420      1.0  0.30745  0.61014  0.28808  1.0000
  C   C421      1.0  0.03402  0.77071  0.29704  1.0000
  H   H741      1.0  0.22196  0.64740  0.37953  1.0000
  N   N24       1.0  0.02703  0.79315  0.31003  1.0000
  H   H742      1.0  0.06111  0.90492  0.29216  1.0000
  H   H743      1.0  0.08242  0.84480  0.30723  1.0000
  C   C422      1.0  0.34379  0.95917  0.46450  1.0000
  H   H744      1.0  0.00653  0.94485  0.33722  1.0000
  H   H745      1.0  0.31753  0.87881  0.23943  1.0000
  H   H746      1.0  0.48336  0.95506  0.27508  1.0000
  H   H747      1.0  0.21933  0.83954  0.34112  1.0000
  H   H748      1.0  0.31126  0.85531  0.21972  1.0000
  H   H749      1.0  0.48742  0.94153  0.21837  1.0000
  H   H750      1.0  0.05919  0.72700  0.28087  1.0000
  H   H751      1.0  0.04789  0.81650  0.36825  1.0000
  H   H752      1.0  0.31908  0.96764  0.32660  1.0000
  H   H753      1.0  0.28133  0.56769  0.23992  1.0000
  C   C423      1.0  0.19393  0.64432  0.35567  1.0000
  H   H754      1.0  0.05524  0.84076  0.33925  1.0000
  C   C424      1.0  0.14912  0.56950  0.32860  1.0000
  H   H755      1.0  0.05277  0.73532  0.31128  1.0000
  H   H756      1.0  0.42708  0.62372  0.23272  1.0000
  H   H757      1.0  0.01646  0.83853  0.28413  1.0000
  H   H758      1.0  0.29628  0.82776  0.23907  1.0000
  H   H759      1.0  0.07617  0.68139  0.33148  1.0000
  H   H760      1.0  0.06408  0.60108  0.32640  1.0000
  C   C425      1.0  0.24810  0.85015  0.33525  1.0000
  H   H761      1.0  0.34986  0.98289  0.35747  1.0000
  H   H762      1.0  0.19936  0.62160  0.35154  1.0000
  C   C426      1.0  0.26466  0.62431  0.24041  1.0000
  H   H763      1.0  0.23557  0.95383  0.32698  1.0000
  H   H764      1.0  0.34337  0.85921  0.45909  1.0000
  H   H765      1.0  0.33819  0.61814  0.28964  1.0000
  C   C427      1.0  0.24234  0.82460  0.32051  1.0000
  C   C428      1.0  0.48520  0.92943  0.25175  1.0000
  C   C429      1.0  0.03123  0.70991  0.28760  1.0000
  H   H766      1.0  0.48250  0.74232  0.31774  1.0000
  C   C430      1.0  0.35460  0.94914  0.37757  1.0000
  H   H767      1.0  0.15534  0.52536  0.23150  1.0000
  H   H768      1.0  0.09781  0.51315  0.33129  1.0000
  H   H769      1.0  0.30904  0.96118  0.37136  1.0000
  C   C431      1.0  0.04682  0.84671  0.28696  1.0000
  H   H770      1.0  0.10207  0.89976  0.28649  1.0000
  H   H771      1.0  0.08112  0.80719  0.35709  1.0000
  S   S116      1.0  0.19098  0.99107  0.33491  1.0000
  H   H772      1.0  0.17245  0.85896  0.36854  1.0000
  C   C432      1.0  0.19618  0.87647  0.37727  1.0000
  H   H773      1.0  0.13131  0.61727  0.35596  1.0000
  C   C433      1.0  0.26443  0.89214  0.32919  1.0000
  H   H774      1.0  0.24607  0.94150  0.35800  1.0000
  H   H775      1.0  0.11491  0.58718  0.31365  1.0000
  H   H776      1.0  0.11469  0.53105  0.43872  1.0000
  N   N25       1.0  0.30475  0.62882  0.23983  1.0000
  H   H777      1.0  0.26055  0.94791  0.30970  1.0000
  H   H778      1.0  0.17543  0.58228  0.32065  1.0000
  C   C434      1.0  0.43417  0.56205  0.46648  1.0000
  H   H779      1.0  0.31353  0.89819  0.46438  1.0000
  H   H780      1.0  0.26752  0.84663  0.34426  1.0000
  H   H781      1.0  0.05942  0.98773  0.28095  1.0000
  H   H782      1.0  0.48452  0.56749  0.29252  1.0000
  C   C435      1.0  0.15564  0.64038  0.34860  1.0000
  S   S117      1.0  0.47367  0.76862  0.27815  1.0000
  H   H783      1.0  0.24096  0.89176  0.32136  1.0000
  H   H784      1.0  0.30046  0.89570  0.35972  1.0000
  H   H785      1.0  0.05193  0.98600  0.33184  1.0000
  H   H786      1.0  0.01545  0.76660  0.28587  1.0000
  H   H787      1.0  0.06829  0.89731  0.27072  1.0000
  C   C436      1.0  0.47077  0.00113  0.46448  1.0000
  C   C437      1.0  0.31985  0.63313  0.25754  1.0000
  H   H788      1.0  0.03224  0.52332  0.24515  1.0000
  S   S118      1.0  0.21610  0.98474  0.38388  1.0000
  H   H789      1.0  0.01172  0.61797  0.45308  1.0000
  H   H790      1.0  0.13172  0.57204  0.45170  1.0000
  C   C438      1.0  0.29469  0.59968  0.26999  1.0000
  H   H791      1.0  0.47506  0.90687  0.27754  1.0000
  C   C439      1.0  0.24280  0.91426  0.35343  1.0000
  H   H792      1.0  0.28904  0.89973  0.32050  1.0000
  C   C440      1.0  0.05041  0.79984  0.35804  1.0000
  H   H793      1.0  0.04448  0.85263  0.31348  1.0000
  H   H794      1.0  0.24234  0.59371  0.24207  1.0000
  H   H795      1.0  0.29726  0.57423  0.26725  1.0000
  C   C441      1.0  0.45954  0.97583  0.22182  1.0000
  H   H796      1.0  0.41261  0.87881  0.45446  1.0000
  C   C442      1.0  0.30310  0.59372  0.23292  1.0000
  H   H797      1.0  0.30027  0.98279  0.34286  1.0000
  H   H798      1.0  0.05905  0.65438  0.31260  1.0000
  H   H799      1.0  0.25761  0.90373  0.37897  1.0000
  C   C443      1.0  0.08150  0.63013  0.33138  1.0000
  H   H800      1.0  0.26386  0.59163  0.26927  1.0000
  H   H801      1.0  0.46471  0.98274  0.23525  1.0000
  H   H802      1.0  0.02474  0.75651  0.33108  1.0000
  H   H803      1.0  0.06444  0.78713  0.29238  1.0000
  H   H804      1.0  0.00622  0.99476  0.41944  1.0000
  H   H805      1.0  0.43549  0.55976  0.45272  1.0000
  N   N26       1.0  0.14837  0.63378  0.33003  1.0000
  C   C444      1.0  0.18499  0.65315  0.31974  1.0000
  H   H806      1.0  0.15685  0.56842  0.34188  1.0000
  C   C445      1.0  0.12309  0.64996  0.32408  1.0000
  H   H807      1.0  0.18965  0.66656  0.37961  1.0000
  H   H808      1.0  0.48551  0.56349  0.27013  1.0000
  C   C446      1.0  0.20666  0.69748  0.31949  1.0000
  H   H809      1.0  0.10109  0.57639  0.33498  1.0000
  C   C447      1.0  0.33175  0.66467  0.22997  1.0000
  H   H810      1.0  0.36360  0.85706  0.24879  1.0000
  H   H811      1.0  0.04255  0.53110  0.22302  1.0000
  C   C448      1.0  0.24762  0.71431  0.31252  1.0000
  H   H812      1.0  0.36962  0.97436  0.38561  1.0000
  H   H813      1.0  0.17851  0.64421  0.30649  1.0000
  H   H814      1.0  0.20569  0.64381  0.32392  1.0000
  H   H815      1.0  0.43169  0.93090  0.25249  1.0000
  C   C449      1.0  0.26422  0.96427  0.32114  1.0000
  H   H816      1.0  0.12053  0.64916  0.31013  1.0000
  H   H817      1.0  0.13648  0.68059  0.32717  1.0000
  H   H818      1.0  0.05661  0.83315  0.27781  1.0000
  C   C450      1.0  0.00317  0.97644  0.28962  1.0000
  H   H819      1.0  0.21889  0.67190  0.35146  1.0000
  C   C451      1.0  0.39085  0.84884  0.45787  1.0000
  H   H820      1.0  0.19119  0.70837  0.31139  1.0000
  H   H821      1.0  0.20840  0.70857  0.33218  1.0000
  H   H822      1.0  0.17055  0.61544  0.37979  1.0000
  H   H823      1.0  0.35691  0.83358  0.22927  1.0000
  C   C452      1.0  0.06073  0.65221  0.32645  1.0000
  H   H824      1.0  0.19173  0.59848  0.22352  1.0000
  C   C453      1.0  0.12670  0.59160  0.32661  1.0000
  H   H825      1.0  0.08118  0.54474  0.44674  1.0000
  H   H826      1.0  0.33093  0.59406  0.23502  1.0000
  H   H827      1.0  0.02914  0.68257  0.29196  1.0000
  H   H828      1.0  0.26873  0.67294  0.22564  1.0000
  N   N27       1.0  0.27673  0.92165  0.34252  1.0000
  H   H829      1.0  0.26533  0.70651  0.32083  1.0000
  H   H830      1.0  0.24704  0.70386  0.29976  1.0000
  H   H831      1.0  0.26151  0.74589  0.31166  1.0000
  H   H832      1.0  0.14097  0.51295  0.32498  1.0000
  C   C454      1.0  0.03476  0.96608  0.34217  1.0000
  C   C455      1.0  0.43478  0.86993  0.22471  1.0000
  C   C456      1.0  0.23532  0.88830  0.36937  1.0000
  C   C457      1.0  0.04341  0.98187  0.29295  1.0000
  C   C458      1.0  0.20966  0.62909  0.22635  1.0000
  C   C459      1.0  0.19260  0.52490  0.26993  1.0000
  H   H833      1.0  0.31620  0.74517  0.22686  1.0000
  H   H834      1.0  0.04153  0.95589  0.29905  1.0000
  H   H835      1.0  0.43196  0.97458  0.21821  1.0000
  C   C460      1.0  0.49193  0.93457  0.27060  1.0000
  H   H836      1.0  0.01517  0.88222  0.32901  1.0000
  C   C461      1.0  0.00025  0.62258  0.22382  1.0000
  Fe  Fe59      1.0  0.13705  0.99583  0.33532  1.0000
  H   H837      1.0  0.00714  0.70351  0.27877  1.0000
  H   H838      1.0  0.03091  0.63715  0.33159  1.0000
  C   C462      1.0  0.00212  0.95962  0.36992  1.0000
  C   C463      1.0  0.03690  0.80960  0.34155  1.0000
  H   H839      1.0  0.45632  0.58106  0.27899  1.0000
  H   H840      1.0  0.36512  0.92094  0.46051  1.0000
  H   H841      1.0  0.20965  0.51463  0.27648  1.0000
  H   H842      1.0  0.11573  0.52684  0.31004  1.0000
  H   H843      1.0  0.39451  0.73246  0.21919  1.0000
  H   H844      1.0  0.41840  0.84554  0.23370  1.0000
  C   C464      1.0  0.39028  0.89626  0.22691  1.0000
  C   C465      1.0  0.29210  0.96009  0.33362  1.0000
  C   C466      1.0  0.04039  0.78698  0.32702  1.0000
  C   C467      1.0  0.03160  0.99683  0.39472  1.0000
  H   H845      1.0  0.03228  0.76905  0.36139  1.0000
  H   H846      1.0  0.48948  0.64822  0.28935  1.0000
  Fe  Fe60      1.0  0.48579  0.75942  0.25194  1.0000
  C   C468      1.0  0.02907  0.73133  0.30261  1.0000
  C   C469      1.0  0.45765  0.93746  0.21813  1.0000
  C   C470      1.0  0.31852  0.85514  0.23319  1.0000
  H   H847      1.0  0.48149  0.68841  0.30371  1.0000
  C   C471      1.0  0.35829  0.85864  0.23520  1.0000
  H   H848      1.0  0.49649  0.91099  0.24755  1.0000
  Fe  Fe61      1.0  0.07712  0.59794  0.49349  1.0000
  S   S119      1.0  0.06328  0.57473  0.51999  1.0000
  H   H849      1.0  0.20380  0.85920  0.70063  1.0000
  Fe  Fe62      1.0  0.15660  0.66411  0.50308  1.0000
  S   S120      1.0  0.14821  0.64572  0.53017  1.0000
  S   S121      1.0  0.21221  0.71099  0.49121  1.0000
  Fe  Fe63      1.0  0.12469  0.58640  0.52078  1.0000
  S   S122      1.0  0.14348  0.54678  0.53314  1.0000
  Fe  Fe64      1.0  0.08762  0.63622  0.52708  1.0000
  S   S123      1.0  0.06131  0.65123  0.54900  1.0000
  S   S124      1.0  0.13677  0.60537  0.49389  1.0000
  S   S125      1.0  0.09773  0.65892  0.50035  1.0000
  S   S126      1.0  0.03100  0.87877  0.61365  1.0000
  Fe  Fe65      1.0  0.42982  0.81899  0.51906  1.0000
  S   S127      1.0  0.43902  0.81107  0.49226  1.0000
  S   S128      1.0  0.37104  0.80229  0.53014  1.0000
  Fe  Fe66      1.0  0.47761  0.78940  0.50241  1.0000
  H   H850      1.0  0.22442  0.59359  0.48180  1.0000
  S   S129      1.0  0.46511  0.79349  0.52932  1.0000
  S   S130      1.0  0.47964  0.87934  0.51969  1.0000
  Fe  Fe67      1.0  0.36207  0.52154  0.51761  1.0000
  S   S131      1.0  0.40408  0.57795  0.52903  1.0000
  H   H851      1.0  0.47041  0.62257  0.68991  1.0000
  C   C472      1.0  0.45124  0.69362  0.50133  1.0000
  C   C473      1.0  0.42926  0.65984  0.49266  1.0000
  C   C474      1.0  0.41287  0.62417  0.50117  1.0000
  C   C475      1.0  0.41949  0.62205  0.51830  1.0000
  C   C476      1.0  0.44108  0.65585  0.52700  1.0000
  C   C477      1.0  0.45658  0.69155  0.51859  1.0000
  H   H852      1.0  0.20941  0.91306  0.71642  1.0000
  H   H853      1.0  0.39608  0.59835  0.49437  1.0000
  H   H854      1.0  0.09665  0.77615  0.53869  1.0000
  C   C478      1.0  0.19317  0.97244  0.62718  1.0000
  C   C479      1.0  0.05845  0.92134  0.60178  1.0000
  C   C480      1.0  0.07450  0.95657  0.60960  1.0000
  C   C481      1.0  0.09127  0.95445  0.57600  1.0000
  C   C482      1.0  0.06649  0.92044  0.58489  1.0000
  H   H855      1.0  0.06838  0.95744  0.62268  1.0000
  H   H856      1.0  0.09777  0.95352  0.56298  1.0000
  H   H857      1.0  0.05425  0.89339  0.57884  1.0000
  C   C483      1.0  0.25600  0.73363  0.50248  1.0000
  C   C484      1.0  0.25660  0.74067  0.51952  1.0000
  C   C485      1.0  0.29207  0.76145  0.52786  1.0000
  C   C486      1.0  0.32722  0.77485  0.51930  1.0000
  C   C487      1.0  0.32659  0.76713  0.50232  1.0000
  C   C488      1.0  0.29113  0.74700  0.49391  1.0000
  H   H858      1.0  0.22970  0.73106  0.52614  1.0000
  H   H859      1.0  0.29229  0.76734  0.54099  1.0000
  H   H860      1.0  0.35337  0.77714  0.49557  1.0000
  C   C489      1.0  0.31109  0.59619  0.53529  1.0000
  H   H861      1.0  0.46123  0.53033  0.55552  1.0000
  C   C490      1.0  0.26783  0.57028  0.70723  1.0000
  H   H862      1.0  0.31843  0.57966  0.56084  1.0000
  H   H863      1.0  0.25431  0.58385  0.54335  1.0000
  H   H864      1.0  0.33746  0.89329  0.51822  1.0000
  H   H865      1.0  0.29428  0.84318  0.47752  1.0000
  H   H866      1.0  0.03517  0.83889  0.55674  1.0000
  H   H867      1.0  0.00874  0.73040  0.52488  1.0000
  H   H868      1.0  0.18942  0.95719  0.63951  1.0000
  H   H869      1.0  0.15308  0.54222  0.49737  1.0000
  H   H870      1.0  0.25971  0.55700  0.69480  1.0000
  H   H871      1.0  0.13811  0.91138  0.54183  1.0000
  H   H872      1.0  0.49530  0.64792  0.48595  1.0000
  C   C491      1.0  0.03739  0.67844  0.54950  1.0000
  C   C492      1.0  0.49236  0.94459  0.46872  1.0000
  S   S132      1.0  0.04141  0.57206  0.47011  1.0000
  C   C493      1.0  0.15641  0.90867  0.55174  1.0000
  H   H873      1.0  0.29960  0.81961  0.49545  1.0000
  H   H874      1.0  0.11200  0.78927  0.58663  1.0000
  H   H875      1.0  0.10158  0.84916  0.53359  1.0000
  C   C494      1.0  0.35035  0.95266  0.70670  1.0000
  H   H876      1.0  0.34441  0.93747  0.69515  1.0000
  H   H877      1.0  0.05720  0.78700  0.56990  1.0000
  H   H878      1.0  0.12646  0.73656  0.54422  1.0000
  H   H879      1.0  0.44605  0.60870  0.70990  1.0000
  H   H880      1.0  0.29422  0.62312  0.55298  1.0000
  H   H881      1.0  0.23299  0.68209  0.57270  1.0000
  C   C495      1.0  0.07077  0.78758  0.60397  1.0000
  H   H882      1.0  0.02905  0.67082  0.57626  1.0000
  H   H883      1.0  0.38659  0.92278  0.54065  1.0000
  H   H884      1.0  0.37715  0.84918  0.49245  1.0000
  C   C496      1.0  0.27486  0.69426  0.69763  1.0000
  C   C497      1.0  0.05672  0.85399  0.54666  1.0000
  C   C498      1.0  0.31494  0.67433  0.52697  1.0000
  H   H885      1.0  0.27327  0.63137  0.47744  1.0000
  H   H886      1.0  0.27453  0.67256  0.68941  1.0000
  H   H887      1.0  0.33554  0.68908  0.69854  1.0000
  C   C499      1.0  0.28290  0.60972  0.54073  1.0000
  H   H888      1.0  0.46372  0.57543  0.55108  1.0000
  H   H889      1.0  0.45552  0.58819  0.49715  1.0000
  N   N28       1.0  0.10698  0.83820  0.55997  1.0000
  H   H890      1.0  0.46827  0.93561  0.49342  1.0000
  H   H891      1.0  0.29221  0.56697  0.71219  1.0000
  C   C500      1.0  0.00105  0.98720  0.59227  1.0000
  H   H892      1.0  0.45301  0.54354  0.49800  1.0000
  C   C501      1.0  0.23970  0.69855  0.69333  1.0000
  C   C502      1.0  0.34169  0.69497  0.71202  1.0000
  N   N29       1.0  0.34398  0.87851  0.49304  1.0000
  H   H893      1.0  0.45263  0.55597  0.69743  1.0000
  H   H894      1.0  0.49455  0.60067  0.46861  1.0000
  C   C503      1.0  0.02452  0.68373  0.56501  1.0000
  H   H895      1.0  0.01696  0.82032  0.52699  1.0000
  C   C504      1.0  0.47385  0.95163  0.48171  1.0000
  C   C505      1.0  0.18847  0.51588  0.49518  1.0000
  C   C506      1.0  0.46322  0.97989  0.47961  1.0000
  H   H896      1.0  0.11334  0.88895  0.57144  1.0000
  H   H897      1.0  0.27590  0.85384  0.51367  1.0000
  C   C507      1.0  0.09979  0.80772  0.58976  1.0000
  H   H898      1.0  0.12842  0.51707  0.46757  1.0000
  H   H899      1.0  0.18831  0.51191  0.54366  1.0000
  C   C508      1.0  0.47270  0.61459  0.70314  1.0000
  H   H900      1.0  0.28493  0.68557  0.55502  1.0000
  C   C509      1.0  0.13150  0.87872  0.56550  1.0000
  C   C510      1.0  0.24796  0.63829  0.50015  1.0000
  H   H901      1.0  0.02800  0.96851  0.56288  1.0000
  C   C511      1.0  0.00126  0.91683  0.54937  1.0000
  H   H902      1.0  0.07353  0.88460  0.54961  1.0000
  H   H903      1.0  0.14938  0.89407  0.62230  1.0000
  H   H904      1.0  0.12092  0.89637  0.60507  1.0000
  H   H905      1.0  0.42494  0.66128  0.47932  1.0000
  H   H906      1.0  0.20141  0.94749  0.56861  1.0000
  H   H907      1.0  0.44625  0.65442  0.54026  1.0000
  H   H908      1.0  0.04647  0.76006  0.59978  1.0000
  C   C512      1.0  0.11275  0.78031  0.55059  1.0000
  H   H909      1.0  0.34753  0.65427  0.51178  1.0000
  H   H910      1.0  0.17241  0.91687  0.60252  1.0000
  H   H911      1.0  0.21885  0.61694  0.53689  1.0000
  H   H912      1.0  0.40947  0.93440  0.51119  1.0000
  H   H913      1.0  0.48713  0.60736  0.52292  1.0000
  C   C513      1.0  0.01302  0.71734  0.53614  1.0000
  H   H914      1.0  0.16272  0.78410  0.53783  1.0000
  C   C514      1.0  0.37103  0.86848  0.48426  1.0000
  H   H915      1.0  0.39734  0.71208  0.52460  1.0000
  H   H916      1.0  0.33192  0.68096  0.53880  1.0000
  C   C515      1.0  0.48151  0.55336  0.53044  1.0000
  H   H917      1.0  0.41280  0.89165  0.51208  1.0000
  H   H918      1.0  0.43239  0.70205  0.70783  1.0000
  H   H919      1.0  0.01663  0.90429  0.55639  1.0000
  C   C516      1.0  0.23110  0.81869  0.49687  1.0000
  H   H920      1.0  0.33289  0.92568  0.49461  1.0000
  C   C517      1.0  0.39615  0.90496  0.51651  1.0000
  C   C518      1.0  0.03135  0.69526  0.53505  1.0000
  H   H921      1.0  0.49685  0.97633  0.51813  1.0000
  C   C519      1.0  0.26246  0.61761  0.51244  1.0000
  H   H922      1.0  0.41166  0.53407  0.47166  1.0000
  H   H923      1.0  0.21895  0.63259  0.50414  1.0000
  C   C520      1.0  0.08028  0.81509  0.57423  1.0000
  H   H924      1.0  0.05481  0.86713  0.52006  1.0000
  H   H925      1.0  0.19675  0.64549  0.55998  1.0000
  H   H926      1.0  0.42082  0.73967  0.70550  1.0000
  H   H927      1.0  0.09221  0.76145  0.56040  1.0000
  H   H928      1.0  0.32944  0.68062  0.50015  1.0000
  H   H929      1.0  0.39789  0.71969  0.50216  1.0000
  H   H930      1.0  0.05936  0.80595  0.60833  1.0000
  H   H931      1.0  0.28405  0.61304  0.50584  1.0000
  H   H932      1.0  0.26757  0.66950  0.50002  1.0000
  H   H933      1.0  0.15147  0.83911  0.54441  1.0000
  H   H934      1.0  0.30439  0.62620  0.69673  1.0000
  H   H935      1.0  0.15398  0.82721  0.56568  1.0000
  H   H936      1.0  0.45176  0.53674  0.52556  1.0000
  H   H937      1.0  0.24059  0.70679  0.67987  1.0000
  H   H938      1.0  0.13003  0.94334  0.62572  1.0000
  H   H939      1.0  0.38850  0.87889  0.54156  1.0000
  H   H940      1.0  0.37726  0.73986  0.51539  1.0000
  C   C521      1.0  0.15485  0.94995  0.61743  1.0000
  H   H941      1.0  0.33257  0.55926  0.54471  1.0000
  H   H942      1.0  0.34105  0.62053  0.53471  1.0000
  H   H943      1.0  0.06447  0.82934  0.57879  1.0000
  C   C522      1.0  0.14925  0.91199  0.61148  1.0000
  H   H944      1.0  0.11216  0.50988  0.70827  1.0000
  C   C523      1.0  0.09878  0.99067  0.60063  1.0000
  H   H945      1.0  0.28202  0.54112  0.54871  1.0000
  H   H946      1.0  0.23796  0.58843  0.51471  1.0000
  H   H947      1.0  0.15397  0.96667  0.60632  1.0000
  C   C524      1.0  0.40096  0.90774  0.53552  1.0000
  C   C525      1.0  0.18836  0.51314  0.53011  1.0000
  C   C526      1.0  0.14193  0.76684  0.54794  1.0000
  C   C527      1.0  0.22619  0.67085  0.55986  1.0000
  H   H948      1.0  0.43215  0.92390  0.53866  1.0000
  S   S133      1.0  0.34133  0.51488  0.49114  1.0000
  H   H949      1.0  0.47358  0.71743  0.52537  1.0000
  C   C528      1.0  0.18094  0.94803  0.55918  1.0000
  C   C529      1.0  0.34211  0.67854  0.51232  1.0000
  C   C530      1.0  0.27478  0.68339  0.71644  1.0000
  H   H950      1.0  0.40060  0.70045  0.69120  1.0000
  C   C531      1.0  0.38101  0.71478  0.51378  1.0000
  S   S134      1.0  0.47369  0.73775  0.49014  1.0000
  H   H951      1.0  0.21255  0.67126  0.69579  1.0000
  C   C532      1.0  0.35288  0.88095  0.51159  1.0000
  H   H952      1.0  0.42594  0.58397  0.46900  1.0000
  Fe  Fe68      1.0  0.49125  0.86928  0.49345  1.0000
  H   H953      1.0  0.15188  0.88009  0.57543  1.0000
  H   H954      1.0  0.15789  0.76874  0.55970  1.0000
  H   H955      1.0  0.48114  0.55127  0.47051  1.0000
  H   H956      1.0  0.19788  0.96919  0.54909  1.0000
  H   H957      1.0  0.20912  0.82306  0.50327  1.0000
  C   C533      1.0  0.27958  0.61242  0.70550  1.0000
  H   H958      1.0  0.21544  0.96918  0.62049  1.0000
  C   C534      1.0  0.24455  0.62474  0.48227  1.0000
  H   H959      1.0  0.08515  0.78159  0.61471  1.0000
  H   H960      1.0  0.30878  0.69819  0.52501  1.0000
  C   C535      1.0  0.40909  0.70850  0.70439  1.0000
  H   H961      1.0  0.49604  0.53619  0.52936  1.0000
  H   H962      1.0  0.25415  0.63810  0.56370  1.0000
  H   H963      1.0  0.02485  0.98069  0.59429  1.0000
  H   H964      1.0  0.23314  0.63959  0.47406  1.0000
  H   H965      1.0  0.22670  0.69331  0.55131  1.0000
  C   C536      1.0  0.10783  0.98967  0.58387  1.0000
  H   H966      1.0  0.12333  0.83472  0.59464  1.0000
  H   H967      1.0  0.30312  0.58219  0.52303  1.0000
  C   C537      1.0  0.13322  0.82287  0.55539  1.0000
  H   H968      1.0  0.25354  0.89230  0.70538  1.0000
  H   H969      1.0  0.16242  0.95762  0.56521  1.0000
  H   H970      1.0  0.34209  0.85187  0.51728  1.0000
  C   C538      1.0  0.16829  0.53007  0.50407  1.0000
  C   C539      1.0  0.27141  0.85240  0.49993  1.0000
  C   C540      1.0  0.08297  0.83609  0.54487  1.0000
  C   C541      1.0  0.47769  0.57945  0.70374  1.0000
  H   H971      1.0  0.24299  0.66444  0.52851  1.0000
  H   H972      1.0  0.29088  0.74174  0.48070  1.0000
  H   H973      1.0  0.16225  0.99637  0.64914  1.0000
  H   H974      1.0  0.35361  0.72632  0.71303  1.0000
  N   N30       1.0  0.27777  0.63675  0.52890  1.0000
  H   H975      1.0  0.30101  0.72211  0.69465  1.0000
  C   C542      1.0  0.24734  0.64378  0.53648  1.0000
  C   C543      1.0  0.25586  0.65988  0.55440  1.0000
  C   C544      1.0  0.31085  0.56730  0.54821  1.0000
  H   H976      1.0  0.17643  0.90094  0.54579  1.0000
  H   H977      1.0  0.06324  0.80580  0.54173  1.0000
  H   H978      1.0  0.25471  0.61399  0.69999  1.0000
  C   C545      1.0  0.00329  0.52446  0.46904  1.0000
  H   H979      1.0  0.23956  0.72106  0.70093  1.0000
  H   H980      1.0  0.21573  0.99901  0.59452  1.0000
  C   C546      1.0  0.00053  0.72292  0.55165  1.0000
  H   H981      1.0  0.36498  0.65550  0.71493  1.0000
  H   H982      1.0  0.09672  0.53222  0.47589  1.0000
  H   H983      1.0  0.27159  0.87864  0.49524  1.0000
  H   H984      1.0  0.44963  0.98583  0.48980  1.0000
  C   C547      1.0  0.16800  0.52863  0.52158  1.0000
  H   H985      1.0  0.01464  0.86202  0.53221  1.0000
  C   C548      1.0  0.03456  0.85066  0.53046  1.0000
  C   C549      1.0  0.47846  0.55864  0.54912  1.0000
  C   C550      1.0  0.36644  0.99257  0.70610  1.0000
  H   H986      1.0  0.04103  0.69143  0.52305  1.0000
  C   C551      1.0  0.22515  0.87121  0.71091  1.0000
  H   H987      1.0  0.39941  0.89458  0.48204  1.0000
  C   C552      1.0  0.00623  0.70585  0.56611  1.0000
  C   C553      1.0  0.47175  0.57366  0.49365  1.0000
  H   H988      1.0  0.46871  0.95110  0.71351  1.0000
  H   H989      1.0  0.47624  0.99561  0.69304  1.0000
  H   H990      1.0  0.38057  0.93935  0.48899  1.0000
  H   H991      1.0  0.18845  0.51695  0.48164  1.0000
  H   H992      1.0  0.42419  0.95129  0.71072  1.0000
  H   H993      1.0  0.26882  0.99922  0.63316  1.0000
  H   H994      1.0  0.24263  0.55479  0.71579  1.0000
  C   C554      1.0  0.47329  0.57278  0.47425  1.0000
  H   H995      1.0  0.49427  0.52572  0.69882  1.0000
  C   C555      1.0  0.35017  0.91694  0.48699  1.0000
  H   H996      1.0  0.22895  0.79176  0.50195  1.0000
  H   H997      1.0  0.01778  0.93093  0.53772  1.0000
  C   C556      1.0  0.30265  0.84729  0.49089  1.0000
  H   H998      1.0  0.40255  0.52571  0.71703  1.0000
  H   H999      1.0  0.22784  0.84764  0.71713  1.0000
  C   C557      1.0  0.37470  0.68621  0.71619  1.0000
  H   H1000     1.0  0.22447  0.81576  0.48327  1.0000
  H   H1001     1.0  0.32052  0.96064  0.47134  1.0000
  H   H1002     1.0  0.33570  0.81687  0.47012  1.0000
  H   H1003     1.0  0.49810  0.63909  0.70884  1.0000
  C   C558      1.0  0.34230  0.92112  0.46827  1.0000
  C   C559      1.0  0.35723  0.84734  0.46749  1.0000
  H   H1004     1.0  0.37221  0.98333  0.46816  1.0000
  Fe  Fe69      1.0  0.02845  0.80787  0.83046  1.0000
  S   S135      1.0  0.05293  0.81756  0.85654  1.0000
  S   S136      1.0  0.05613  0.80358  0.80646  1.0000
  Fe  Fe70      1.0  0.03179  0.85980  0.85787  1.0000
  S   S137      1.0  0.06304  0.91560  0.87133  1.0000
  H   H1005     1.0  0.38349  0.51053  0.94741  1.0000
  Fe  Fe71      1.0  0.25043  0.81277  0.77727  1.0000
  S   S138      1.0  0.23216  0.80605  0.75022  1.0000
  S   S139      1.0  0.22611  0.82913  0.79913  1.0000
  Fe  Fe72      1.0  0.31545  0.79509  0.77081  1.0000
  S   S140      1.0  0.30237  0.78764  0.74339  1.0000
  S   S141      1.0  0.35980  0.78447  0.78445  1.0000
  Fe  Fe73      1.0  0.29596  0.83989  0.74446  1.0000
  C   C560      1.0  0.30491  0.51814  0.74963  1.0000
  Fe  Fe74      1.0  0.24019  0.75458  0.75139  1.0000
  S   S142      1.0  0.20269  0.69990  0.73765  1.0000
  S   S143      1.0  0.31398  0.85006  0.77144  1.0000
  S   S144      1.0  0.25352  0.75872  0.77887  1.0000
  Fe  Fe75      1.0  0.46781  0.62369  0.77115  1.0000
  S   S145      1.0  0.47694  0.64780  0.74489  1.0000
  S   S146      1.0  0.41772  0.56633  0.77942  1.0000
  S   S147      1.0  0.46489  0.73640  0.74448  1.0000
  S   S148      1.0  0.47712  0.67715  0.78320  1.0000
  S   S149      1.0  0.14376  0.54190  0.77728  1.0000
  C   C561      1.0  0.37466  0.54741  0.76770  1.0000
  H   H1006     1.0  0.11145  0.61280  0.95662  1.0000
  H   H1007     1.0  0.15979  0.98520  0.85486  1.0000
  H   H1008     1.0  0.05918  0.52859  0.72328  1.0000
  C   C562      1.0  0.34018  0.54372  0.74191  1.0000
  C   C563      1.0  0.37487  0.55857  0.75094  1.0000
  H   H1009     1.0  0.33874  0.68249  0.74533  1.0000
  C   C564      1.0  0.30459  0.50689  0.76641  1.0000
  H   H1010     1.0  0.40176  0.57846  0.74488  1.0000
  C   C565      1.0  0.18549  0.65599  0.74879  1.0000
  C   C566      1.0  0.17637  0.62299  0.74002  1.0000
  C   C567      1.0  0.16565  0.58830  0.74869  1.0000
  C   C568      1.0  0.16144  0.58579  0.76611  1.0000
  C   C569      1.0  0.16934  0.61846  0.77482  1.0000
  C   C570      1.0  0.18215  0.65364  0.76624  1.0000
  H   H1011     1.0  0.16006  0.56342  0.74188  1.0000
  H   H1012     1.0  0.16573  0.61666  0.78828  1.0000
  H   H1013     1.0  0.18871  0.67875  0.77311  1.0000
  C   C571      1.0  0.38965  0.77212  0.77322  1.0000
  C   C572      1.0  0.39280  0.77637  0.75578  1.0000
  C   C573      1.0  0.41642  0.76583  0.74716  1.0000
  C   C574      1.0  0.43668  0.75052  0.75587  1.0000
  C   C575      1.0  0.43359  0.74631  0.77332  1.0000
  C   C576      1.0  0.41048  0.75747  0.78197  1.0000
  H   H1014     1.0  0.37748  0.78828  0.74896  1.0000
  H   H1015     1.0  0.33911  0.51203  0.78826  1.0000
  H   H1016     1.0  0.44946  0.73502  0.78017  1.0000
  H   H1017     1.0  0.40882  0.75484  0.79548  1.0000
  C   C577      1.0  0.49063  0.52419  0.74162  1.0000
  H   H1018     1.0  0.09764  0.87727  0.75498  1.0000
  H   H1019     1.0  0.34279  0.93658  0.74885  1.0000
  C   C578      1.0  0.17775  0.81899  0.80114  1.0000
  C   C579      1.0  0.16464  0.82283  0.81683  1.0000
  C   C580      1.0  0.12722  0.81751  0.81876  1.0000
  C   C581      1.0  0.10255  0.80830  0.80497  1.0000
  C   C582      1.0  0.11539  0.80373  0.78936  1.0000
  C   C583      1.0  0.15284  0.80909  0.78742  1.0000
  H   H1020     1.0  0.18345  0.82972  0.82758  1.0000
  H   H1021     1.0  0.11743  0.82047  0.83088  1.0000
  H   H1022     1.0  0.09613  0.79587  0.77874  1.0000
  H   H1023     1.0  0.16244  0.80568  0.77533  1.0000
  C   C584      1.0  0.08010  0.95944  0.86023  1.0000
  C   C585      1.0  0.08033  0.96139  0.84274  1.0000
  H   H1024     1.0  0.26685  0.61265  0.82282  1.0000
  H   H1025     1.0  0.06787  0.93548  0.83581  1.0000
  H   H1026     1.0  0.12417  0.87821  0.77358  1.0000
  H   H1027     1.0  0.31655  0.70117  0.77381  1.0000
  H   H1028     1.0  0.26577  0.89057  0.76908  1.0000
  H   H1029     1.0  0.19964  0.56330  0.81783  1.0000
  C   C586      1.0  0.09593  0.99327  0.86914  1.0000
  H   H1030     1.0  0.40685  0.92908  0.74082  1.0000
  C   C587      1.0  0.26637  0.94474  0.76295  1.0000
  H   H1031     1.0  0.24542  0.65943  0.71946  1.0000
  H   H1032     1.0  0.43944  0.99910  0.73059  1.0000
  H   H1033     1.0  0.08355  0.92178  0.80812  1.0000
  C   C588      1.0  0.15990  0.90651  0.75146  1.0000
  H   H1034     1.0  0.16103  0.93426  0.75314  1.0000
  H   H1035     1.0  0.02963  0.53041  0.76822  1.0000
  H   H1036     1.0  0.08489  0.67639  0.95580  1.0000
  C   C589      1.0  0.26044  0.91295  0.83177  1.0000
  H   H1037     1.0  0.19001  0.87790  0.76195  1.0000
  C   C590      1.0  0.15307  0.91401  0.84964  1.0000
  H   H1038     1.0  0.16929  0.94528  0.87309  1.0000
  H   H1039     1.0  0.14042  0.85906  0.87502  1.0000
  H   H1040     1.0  0.12596  0.91562  0.85008  1.0000
  C   C591      1.0  0.28193  0.66764  0.75306  1.0000
  H   H1041     1.0  0.11077  0.88406  0.82208  1.0000
  H   H1042     1.0  0.14344  0.88402  0.84633  1.0000
  C   C592      1.0  0.15649  0.94472  0.82212  1.0000
  C   C593      1.0  0.34128  0.93217  0.72209  1.0000
  H   H1043     1.0  0.12831  0.67322  0.95705  1.0000
  H   H1044     1.0  0.13778  0.95551  0.82684  1.0000
  N   N31       1.0  0.23416  0.93059  0.75021  1.0000
  H   H1045     1.0  0.48700  0.95028  0.89845  1.0000
  H   H1046     1.0  0.47573  0.53529  0.78361  1.0000
  C   C594      1.0  0.14176  0.88557  0.87931  1.0000
  H   H1047     1.0  0.02336  0.56829  0.95914  1.0000
  H   H1048     1.0  0.08237  0.88617  0.79489  1.0000
  H   H1049     1.0  0.41953  0.58754  0.82044  1.0000
  H   H1050     1.0  0.06041  0.62812  0.75030  1.0000
  H   H1051     1.0  0.29767  0.67492  0.81158  1.0000
  H   H1052     1.0  0.27682  0.70802  0.72326  1.0000
  H   H1053     1.0  0.48025  0.99759  0.73874  1.0000
  H   H1054     1.0  0.18297  0.86815  0.72806  1.0000
  C   C595      1.0  0.46498  0.99672  0.72684  1.0000
  H   H1055     1.0  0.15763  0.90124  0.73790  1.0000
  H   H1056     1.0  0.26252  0.61630  0.73026  1.0000
  C   C596      1.0  0.42871  0.92545  0.73389  1.0000
  C   C597      1.0  0.48191  0.56762  0.72199  1.0000
  H   H1057     1.0  0.22364  0.98009  0.85348  1.0000
  C   C598      1.0  0.31552  0.68721  0.74018  1.0000
  H   H1058     1.0  0.28075  0.93879  0.82434  1.0000
  H   H1059     1.0  0.30272  0.95570  0.79391  1.0000
  C   C599      1.0  0.04517  0.56906  0.74719  1.0000
  H   H1060     1.0  0.19798  0.91952  0.77213  1.0000
  H   H1061     1.0  0.23998  0.90240  0.78380  1.0000
  C   C600      1.0  0.21975  0.57663  0.80706  1.0000
  H   H1062     1.0  0.33350  0.73861  0.82328  1.0000
  H   H1063     1.0  0.11858  0.84679  0.75686  1.0000
  H   H1064     1.0  0.32814  0.94237  0.77936  1.0000
  N   N32       1.0  0.33212  0.62905  0.80240  1.0000
  C   C601      1.0  0.34288  0.65868  0.81555  1.0000
  C   C602      1.0  0.34028  0.59847  0.80925  1.0000
  C   C603      1.0  0.35577  0.64835  0.78687  1.0000
  C   C604      1.0  0.28990  0.61074  0.79799  1.0000
  C   C605      1.0  0.26135  0.59208  0.81288  1.0000
  H   H1065     1.0  0.28123  0.97646  0.72254  1.0000
  C   C606      1.0  0.34829  0.62217  0.77188  1.0000
  C   C607      1.0  0.38352  0.61017  0.81096  1.0000
  H   H1066     1.0  0.01288  0.95385  0.87796  1.0000
  C   C608      1.0  0.37181  0.52155  0.95694  1.0000
  C   C609      1.0  0.32956  0.68852  0.81224  1.0000
  C   C610      1.0  0.37997  0.64171  0.75867  1.0000
  H   H1067     1.0  0.37480  0.67511  0.81706  1.0000
  H   H1068     1.0  0.33154  0.64493  0.82807  1.0000
  H   H1069     1.0  0.32705  0.58835  0.82189  1.0000
  H   H1070     1.0  0.32621  0.57262  0.80149  1.0000
  H   H1071     1.0  0.38719  0.66365  0.78981  1.0000
  H   H1072     1.0  0.35017  0.67116  0.78206  1.0000
  H   H1073     1.0  0.28355  0.63159  0.79131  1.0000
  H   H1074     1.0  0.28213  0.58765  0.78893  1.0000
  C   C611      1.0  0.06337  0.60546  0.75726  1.0000
  H   H1075     1.0  0.26360  0.56775  0.81847  1.0000
  H   H1076     1.0  0.21556  0.59994  0.80157  1.0000
  H   H1077     1.0  0.24517  0.88883  0.82323  1.0000
  H   H1078     1.0  0.32038  0.61511  0.76587  1.0000
  H   H1079     1.0  0.34700  0.59513  0.77582  1.0000
  H   H1080     1.0  0.39699  0.61494  0.79841  1.0000
  H   H1081     1.0  0.39972  0.63667  0.81805  1.0000
  H   H1082     1.0  0.15296  0.89059  0.89233  1.0000
  C   C612      1.0  0.27462  0.99209  0.73191  1.0000
  C   C613      1.0  0.04782  0.53662  0.75687  1.0000
  H   H1083     1.0  0.40644  0.64155  0.76296  1.0000
  C   C614      1.0  0.24021  0.90584  0.73826  1.0000
  H   H1084     1.0  0.21436  0.89477  0.84953  1.0000
  H   H1085     1.0  0.37283  0.55179  0.81334  1.0000
  H   H1086     1.0  0.37051  0.62646  0.74673  1.0000
  H   H1087     1.0  0.38702  0.67159  0.75632  1.0000
  H   H1088     1.0  0.06051  0.57641  0.73502  1.0000
  C   C615      1.0  0.26581  0.91437  0.77557  1.0000
  C   C616      1.0  0.23632  0.96529  0.74140  1.0000
  C   C617      1.0  0.33948  0.52108  0.77535  1.0000
  N   N33       1.0  0.18021  0.94121  0.83629  1.0000
  H   H1089     1.0  0.34169  0.70475  0.80038  1.0000
  H   H1090     1.0  0.01444  0.56070  0.74512  1.0000
  H   H1091     1.0  0.37512  0.73312  0.82693  1.0000
  H   H1092     1.0  0.11215  0.88161  0.87944  1.0000
  C   C618      1.0  0.16822  0.91959  0.86793  1.0000
  H   H1093     1.0  0.23171  0.98275  0.75065  1.0000
  C   C619      1.0  0.28833  0.69270  0.76794  1.0000
  C   C620      1.0  0.38841  0.57898  0.82006  1.0000
  C   C621      1.0  0.19619  0.90777  0.75950  1.0000
  C   C622      1.0  0.23177  0.92020  0.84125  1.0000
  H   H1094     1.0  0.29973  0.90972  0.79601  1.0000
  H   H1095     1.0  0.22240  0.94533  0.81842  1.0000
  H   H1096     1.0  0.26637  0.96749  0.77049  1.0000
  H   H1097     1.0  0.27742  0.90570  0.84079  1.0000
  H   H1098     1.0  0.05433  0.61290  0.94925  1.0000
  C   C623      1.0  0.11558  0.54904  0.95803  1.0000
  H   H1099     1.0  0.14209  0.73934  0.95961  1.0000
  H   H1100     1.0  0.30988  0.62378  0.72938  1.0000
  H   H1101     1.0  0.09466  0.61590  0.75923  1.0000
  H   H1102     1.0  0.01763  0.00100  0.86079  1.0000
  C   C624      1.0  0.04001  0.59940  0.96142  1.0000
  C   C625      1.0  0.47044  0.53044  0.75661  1.0000
  H   H1103     1.0  0.05937  0.51291  0.79004  1.0000
  H   H1104     1.0  0.17562  0.96618  0.81248  1.0000
  H   H1105     1.0  0.25411  0.66121  0.74746  1.0000
  C   C626      1.0  0.12894  0.90742  0.81302  1.0000
  S   S150      1.0  0.01153  0.85340  0.83128  1.0000
  H   H1106     1.0  0.38564  0.69452  0.72902  1.0000
  H   H1107     1.0  0.24907  0.94521  0.84904  1.0000
  H   H1108     1.0  0.37741  0.57448  0.83311  1.0000
  H   H1109     1.0  0.26499  0.67727  0.77735  1.0000
  H   H1110     1.0  0.27912  0.64019  0.75774  1.0000
  H   H1111     1.0  0.33062  0.70309  0.83839  1.0000
  H   H1112     1.0  0.39311  0.57463  0.94247  1.0000
  C   C627      1.0  0.30134  0.93182  0.78688  1.0000
  C   C628      1.0  0.34310  0.71748  0.82613  1.0000
  H   H1113     1.0  0.38287  0.57776  0.96406  1.0000
  H   H1114     1.0  0.28792  0.71884  0.76368  1.0000
  Fe  Fe76      1.0  0.48985  0.70228  0.75702  1.0000
  C   C629      1.0  0.12290  0.87533  0.75978  1.0000
  H   H1115     1.0  0.21277  0.95727  0.73217  1.0000
  H   H1116     1.0  0.23801  0.88038  0.74497  1.0000
  H   H1117     1.0  0.12307  0.56250  0.94528  1.0000
  H   H1118     1.0  0.48686  0.95001  0.92950  1.0000
  H   H1119     1.0  0.41906  0.76962  0.73369  1.0000
  H   H1120     1.0  0.21227  0.55461  0.79754  1.0000
  C   C630      1.0  0.20467  0.92622  0.82901  1.0000
  H   H1121     1.0  0.18624  0.89788  0.82357  1.0000
  H   H1122     1.0  0.49047  0.52300  0.94689  1.0000
  H   H1123     1.0  0.19751  0.92324  0.86888  1.0000
  C   C631      1.0  0.47657  0.00177  0.95429  1.0000
  H   H1124     1.0  0.11855  0.93551  0.79137  1.0000
  H   H1125     1.0  0.34065  0.55225  0.72890  1.0000
  C   C632      1.0  0.10183  0.91330  0.80113  1.0000
  H   H1126     1.0  0.14547  0.89804  0.80531  1.0000
  C   C633      1.0  0.34919  0.95205  0.73694  1.0000
  H   H1127     1.0  0.29490  0.95814  0.75660  1.0000
  C   C634      1.0  0.49083  0.53094  0.77304  1.0000
  H   H1128     1.0  0.42572  0.57566  0.95853  1.0000
  C   C635      1.0  0.20657  0.98078  0.84257  1.0000
  H   H1129     1.0  0.17850  0.62448  0.72651  1.0000
  H   H1130     1.0  0.04893  0.60029  0.76963  1.0000
  N   N34       1.0  0.47740  0.52836  0.72426  1.0000
  C   C636      1.0  0.36489  0.99192  0.73635  1.0000
  C   C637      1.0  0.43928  0.96967  0.95520  1.0000
  H   H1131     1.0  0.22844  0.99847  0.83281  1.0000
  C   C638      1.0  0.39483  0.56505  0.95548  1.0000
  H   H1132     1.0  0.41878  0.96507  0.94530  1.0000
  H   H1133     1.0  0.32734  0.71866  0.74030  1.0000
  H   H1134     1.0  0.07801  0.54853  0.76153  1.0000
  H   H1135     1.0  0.46132  0.57099  0.72994  1.0000
  H   H1136     1.0  0.09978  0.99843  0.82068  1.0000
  H   H1137     1.0  0.09571  0.99193  0.88269  1.0000
  C   C639      1.0  0.44720  0.95593  0.71991  1.0000
  H   H1138     1.0  0.27004  0.92100  0.73318  1.0000
  H   H1139     1.0  0.10512  0.51807  0.95699  1.0000
  H   H1140     1.0  0.34150  0.51278  0.95368  1.0000
  H   H1141     1.0  0.05911  0.54250  0.95713  1.0000
  H   H1142     1.0  0.45100  0.92692  0.74280  1.0000
  H   H1143     1.0  0.09386  0.52808  0.73695  1.0000
  H   H1144     1.0  0.47065  0.55792  0.75543  1.0000
  H   H1145     1.0  0.99983  0.62226  0.93891  1.0000
  C   C640      1.0  0.10786  0.67821  0.96435  1.0000
  C   C641      1.0  0.06343  0.51047  0.73280  1.0000
  H   H1146     1.0  0.00265  0.97012  0.84383  1.0000
  C   C642      1.0  0.28966  0.63124  0.72275  1.0000
  C   C643      1.0  0.48280  0.50398  0.95778  1.0000
  H   H1147     1.0  0.41392  0.89670  0.72842  1.0000
  H   H1148     1.0  0.48347  0.98979  0.90627  1.0000
  C   C644      1.0  0.09841  0.99704  0.83422  1.0000
  H   H1149     1.0  0.44030  0.50668  0.75783  1.0000
  C   C645      1.0  0.21185  0.89024  0.72341  1.0000
  S   S151      1.0  0.31917  0.88185  0.72209  1.0000
  H   H1150     1.0  0.40655  0.51520  0.73858  1.0000
  C   C646      1.0  0.08402  0.55469  0.96579  1.0000
  H   H1151     1.0  0.14195  0.56158  0.96590  1.0000
  C   C647      1.0  0.00906  0.61090  0.96501  1.0000
  N   N35       1.0  0.30534  0.67375  0.72247  1.0000
  C   C648      1.0  0.40330  0.50426  0.72584  1.0000
  H   H1152     1.0  0.49047  0.50350  0.77529  1.0000
  H   H1153     1.0  0.49625  0.90490  0.94261  1.0000
  Fe  Fe77      1.0  0.90045  0.13811  0.10871  1.0000
  S   S152      1.0  0.87743  0.13133  0.08237  1.0000
  S   S153      1.0  0.87557  0.14470  0.13305  1.0000
  H   H1154     1.0  0.54069  0.46714  0.97554  1.0000
  H   H1155     1.0  0.88110  0.21122  0.00484  1.0000
  H   H1156     1.0  0.87837  0.21029  0.02738  1.0000
  H   H1157     1.0  0.91393  0.27965  0.02801  1.0000
  Fe  Fe78      1.0  0.89386  0.08563  0.08076  1.0000
  S   S154      1.0  0.86029  0.02983  0.06743  1.0000
  N   N36       1.0  0.92819  0.48275  0.20642  1.0000
  S   S155      1.0  0.91221  0.08935  0.10758  1.0000
  S   S156      1.0  0.52527  0.37654  0.16268  1.0000
  Fe  Fe79      1.0  0.79101  0.45967  0.17530  1.0000
  S   S157      1.0  0.77853  0.46534  0.20191  1.0000
  S   S158      1.0  0.79318  0.40975  0.16438  1.0000
  C   C649      1.0  0.90299  0.42449  0.18681  1.0000
  S   S159      1.0  0.74953  0.47710  0.16459  1.0000
  Fe  Fe80      1.0  0.68303  0.13755  0.16197  1.0000
  S   S160      1.0  0.70475  0.14493  0.18840  1.0000
  S   S161      1.0  0.70836  0.12605  0.13907  1.0000
  Fe  Fe81      1.0  0.61589  0.14987  0.17096  1.0000
  S   S162      1.0  0.63208  0.15762  0.19806  1.0000
  S   S163      1.0  0.56907  0.15846  0.15876  1.0000
  Fe  Fe82      1.0  0.69289  0.19389  0.18870  1.0000
  H   H1158     1.0  0.78982  0.21237  0.18218  1.0000
  Fe  Fe83      1.0  0.64209  0.10776  0.19564  1.0000
  H   H1159     1.0  0.68211  0.02904  0.14720  1.0000
  S   S164      1.0  0.67616  0.18948  0.16168  1.0000
  S   S165      1.0  0.62095  0.09699  0.16906  1.0000
  C   C650      1.0  0.74305  0.09350  0.21104  1.0000
  H   H1160     1.0  0.85925  0.26976  0.10310  1.0000
  C   C651      1.0  0.72334  0.05182  0.20613  1.0000
  H   H1161     1.0  0.98008  0.44164  0.03049  1.0000
  C   C652      1.0  0.93074  0.44850  0.20103  1.0000
  C   C653      1.0  0.77370  0.36522  0.17515  1.0000
  C   C654      1.0  0.77327  0.36223  0.19264  1.0000
  S   S166      1.0  0.68159  0.46655  0.20295  1.0000
  C   C655      1.0  0.74776  0.29348  0.19138  1.0000
  C   C656      1.0  0.74739  0.29642  0.17390  1.0000
  C   C657      1.0  0.76043  0.33221  0.16586  1.0000
  C   C658      1.0  0.66096  0.02936  0.15596  1.0000
  C   C659      1.0  0.81489  0.24124  0.17966  1.0000
  H   H1162     1.0  0.53331  0.20275  0.14978  1.0000
  H   H1163     1.0  0.75974  0.33444  0.15236  1.0000
  H   H1164     1.0  0.76053  0.20100  0.12061  1.0000
  H   H1165     1.0  0.96071  0.34216  0.02225  1.0000
  C   C660      1.0  0.52699  0.19431  0.16287  1.0000
  C   C661      1.0  0.54197  0.17287  0.17072  1.0000
  C   C662      1.0  0.53378  0.16212  0.18763  1.0000
  H   H1166     1.0  0.96397  0.05089  0.07921  1.0000
  H   H1167     1.0  0.95204  0.40663  0.00512  1.0000
  H   H1168     1.0  0.99184  0.16278  0.03712  1.0000
  H   H1169     1.0  0.54487  0.14522  0.19371  1.0000
  C   C663      1.0  0.56867  0.39773  0.17422  1.0000
  C   C664      1.0  0.60414  0.41472  0.16569  1.0000
  C   C665      1.0  0.63909  0.43476  0.17443  1.0000
  C   C666      1.0  0.63874  0.43821  0.19177  1.0000
  C   C667      1.0  0.60332  0.42020  0.20037  1.0000
  C   C668      1.0  0.56839  0.39978  0.19164  1.0000
  H   H1170     1.0  0.60464  0.41250  0.15225  1.0000
  H   H1171     1.0  0.87499  0.37029  0.13557  1.0000
  H   H1172     1.0  0.83932  0.22396  0.16037  1.0000
  H   H1173     1.0  0.54120  0.38627  0.19830  1.0000
  C   C669      1.0  0.95036  0.01649  0.14123  1.0000
  H   H1174     1.0  0.82341  0.22091  0.09932  1.0000
  C   C670      1.0  0.82799  0.13670  0.13485  1.0000
  C   C671      1.0  0.80308  0.12629  0.12112  1.0000
  C   C672      1.0  0.76616  0.12230  0.12277  1.0000
  C   C673      1.0  0.75379  0.12856  0.13812  1.0000
  C   C674      1.0  0.77827  0.13797  0.15200  1.0000
  C   C675      1.0  0.81528  0.14208  0.15034  1.0000
  H   H1175     1.0  0.81249  0.12194  0.10916  1.0000
  H   H1176     1.0  0.74732  0.11489  0.11199  1.0000
  H   H1177     1.0  0.76899  0.14272  0.16391  1.0000
  H   H1178     1.0  0.83440  0.15002  0.16103  1.0000
  C   C676      1.0  0.98901  0.03880  0.04308  1.0000
  C   C677      1.0  0.98358  0.26492  0.05362  1.0000
  C   C678      1.0  0.56092  0.45612  0.97394  1.0000
  C   C679      1.0  0.99681  0.28621  0.03848  1.0000
  H   H1179     1.0  0.60939  0.49603  0.12075  1.0000
  S   S167      1.0  0.95418  0.21473  0.05296  1.0000
  C   C680      1.0  0.77549  0.03376  0.15549  1.0000
  H   H1180     1.0  0.57101  0.25259  0.19586  1.0000
  C   C681      1.0  0.96088  0.48926  0.98598  1.0000
  H   H1181     1.0  0.83012  0.33269  0.98365  1.0000
  H   H1182     1.0  0.94432  0.08184  0.14529  1.0000
  H   H1183     1.0  0.74592  0.04416  0.20369  1.0000
  C   C682      1.0  0.74366  0.24422  0.12282  1.0000
  C   C683      1.0  0.58958  0.30683  0.18374  1.0000
  H   H1184     1.0  0.99490  0.40497  0.01029  1.0000
  H   H1185     1.0  0.87236  0.26387  0.01468  1.0000
  H   H1186     1.0  0.60294  0.42241  0.21382  1.0000
  H   H1187     1.0  0.66616  0.44828  0.16769  1.0000
  H   H1188     1.0  0.86932  0.19927  0.10814  1.0000
  H   H1189     1.0  0.91297  0.44004  0.17456  1.0000
  C   C684      1.0  0.65414  0.29273  0.18365  1.0000
  H   H1190     1.0  0.91851  0.03184  0.08958  1.0000
  C   C685      1.0  0.53493  0.43886  0.02101  1.0000
  H   H1191     1.0  0.61313  0.33686  0.18352  1.0000
  H   H1192     1.0  0.52695  0.27728  0.18636  1.0000
  C   C686      1.0  0.63583  0.26008  0.17100  1.0000
  C   C687      1.0  0.99421  0.28393  0.06873  1.0000
  H   H1193     1.0  0.58221  0.01060  0.19206  1.0000
  H   H1194     1.0  0.96504  0.04932  0.11078  1.0000
  H   H1195     1.0  0.98037  0.08736  0.03853  1.0000
  C   C688      1.0  0.65088  0.27390  0.15321  1.0000
  C   C689      1.0  0.90164  0.38623  0.18537  1.0000
  H   H1196     1.0  0.68398  0.29850  0.18596  1.0000
  H   H1197     1.0  0.65805  0.31925  0.17732  1.0000
  H   H1198     1.0  0.54841  0.19719  0.96851  1.0000
  H   H1199     1.0  0.93095  0.39061  0.18294  1.0000
  N   N37       1.0  0.63282  0.28485  0.20005  1.0000
  H   H1200     1.0  0.95375  0.50090  0.99648  1.0000
  H   H1201     1.0  0.80612  0.26291  0.18191  1.0000
  H   H1202     1.0  0.73544  0.24150  0.13616  1.0000
  H   H1203     1.0  0.58948  0.29489  0.17142  1.0000
  H   H1204     1.0  0.92437  0.22760  0.01734  1.0000
  H   H1205     1.0  0.64275  0.23739  0.17469  1.0000
  H   H1206     1.0  0.60406  0.24713  0.17081  1.0000
  C   C690      1.0  0.79672  0.23686  0.14885  1.0000
  H   H1207     1.0  0.82938  0.31405  0.15336  1.0000
  H   H1208     1.0  0.95602  0.01259  0.15462  1.0000
  H   H1209     1.0  0.72398  0.49107  0.12479  1.0000
  H   H1210     1.0  0.50526  0.48357  0.05275  1.0000
  Fe  Fe84      1.0  0.74037  0.48694  0.19115  1.0000
  H   H1211     1.0  0.60773  0.22350  0.19902  1.0000
  C   C691      1.0  0.96039  0.33366  0.96852  1.0000
  S   S168      1.0  0.96133  0.18214  0.10134  1.0000
  H   H1212     1.0  0.99267  0.35619  0.99137  1.0000
  H   H1213     1.0  0.68268  0.28642  0.15274  1.0000
  H   H1214     1.0  0.63759  0.24935  0.14474  1.0000
  H   H1215     1.0  0.64312  0.29550  0.14866  1.0000
  H   H1216     1.0  0.73852  0.05752  0.15847  1.0000
  H   H1217     1.0  0.89345  0.37746  0.99619  1.0000
  H   H1218     1.0  0.84619  0.45242  0.20545  1.0000
  H   H1219     1.0  0.83511  0.36297  0.12206  1.0000
  H   H1220     1.0  0.96038  0.45728  0.19649  1.0000
  C   C692      1.0  0.74906  0.04164  0.16633  1.0000
  H   H1221     1.0  0.54103  0.46627  0.20265  1.0000
  H   H1222     1.0  0.60679  0.49396  0.21362  1.0000
  C   C693      1.0  0.84805  0.23972  0.10740  1.0000
  C   C694      1.0  0.76081  0.32651  0.20073  1.0000
  H   H1223     1.0  0.93513  0.39979  0.03587  1.0000
  H   H1224     1.0  0.72107  0.10115  0.21480  1.0000
  H   H1225     1.0  0.58525  0.28972  0.21006  1.0000
  H   H1226     1.0  0.55184  0.32257  0.19642  1.0000
  H   H1227     1.0  0.54121  0.48755  0.00680  1.0000
  H   H1228     1.0  0.53913  0.45378  0.12728  1.0000
  H   H1229     1.0  0.75436  0.27407  0.11830  1.0000
  C   C695      1.0  0.54441  0.46133  0.21616  1.0000
  H   H1230     1.0  0.67232  0.05832  0.16082  1.0000
  C   C696      1.0  0.65795  0.31515  0.21218  1.0000
  H   H1231     1.0  0.78327  0.24084  0.10641  1.0000
  C   C697      1.0  0.83270  0.29277  0.12871  1.0000
  C   C698      1.0  0.59390  0.28244  0.19813  1.0000
  H   H1232     1.0  0.83549  0.37479  0.14362  1.0000
  H   H1233     1.0  0.86404  0.30348  0.13092  1.0000
  S   S169      1.0  0.95381  0.12550  0.07120  1.0000
  C   C699      1.0  0.69661  0.04423  0.19071  1.0000
  H   H1234     1.0  0.63061  0.48710  0.15135  1.0000
  H   H1235     1.0  0.73691  0.27117  0.16660  1.0000
  H   H1236     1.0  0.54702  0.32046  0.17388  1.0000
  C   C700      1.0  0.70671  0.21895  0.11317  1.0000
  C   C701      1.0  0.82179  0.31635  0.14012  1.0000
  H   H1237     1.0  0.69399  0.18872  0.11762  1.0000
  C   C702      1.0  0.92013  0.05517  0.15082  1.0000
  C   C703      1.0  0.83513  0.23359  0.12605  1.0000
  H   H1238     1.0  0.86198  0.24590  0.13367  1.0000
  H   H1239     1.0  0.87302  0.41846  0.18862  1.0000
  C   C704      1.0  0.84327  0.35865  0.13496  1.0000
  Fe  Fe85      1.0  0.97118  0.13239  0.09814  1.0000
  H   H1240     1.0  0.83082  0.30122  0.11546  1.0000
  N   N38       1.0  0.80981  0.24983  0.13099  1.0000
  H   H1241     1.0  0.83828  0.24576  0.18858  1.0000
  H   H1242     1.0  0.71268  0.22097  0.09952  1.0000
  H   H1243     1.0  0.90576  0.24786  0.11222  1.0000
  S   S170      1.0  0.73115  0.24900  0.20191  1.0000
  H   H1244     1.0  0.60233  0.02025  0.15370  1.0000
  H   H1245     1.0  0.76708  0.06086  0.17635  1.0000
  H   H1246     1.0  0.80001  0.06113  0.15073  1.0000
  H   H1247     1.0  0.88248  0.37043  0.17482  1.0000
  H   H1248     1.0  0.77616  0.20561  0.14952  1.0000
  C   C705      1.0  0.55151  0.30676  0.18526  1.0000
  H   H1249     1.0  0.68516  0.22821  0.11529  1.0000
  H   H1250     1.0  0.75947  0.01677  0.14454  1.0000
  H   H1251     1.0  0.76064  0.11260  0.20049  1.0000
  H   H1252     1.0  0.78320  0.38749  0.19989  1.0000
  Fe  Fe86      1.0  0.93927  0.17206  0.07487  1.0000
  C   C706      1.0  0.87980  0.22966  0.10466  1.0000
  C   C707      1.0  0.82924  0.24494  0.16168  1.0000
  H   H1253     1.0  0.82016  0.20242  0.12883  1.0000
  H   H1254     1.0  0.88831  0.23419  0.09123  1.0000
  H   H1255     1.0  0.68450  0.36583  0.19496  1.0000
  H   H1256     1.0  0.71158  0.06851  0.18162  1.0000
  C   C708      1.0  0.96498  0.41002  0.03133  1.0000
  C   C709      1.0  0.56178  0.46037  0.13690  1.0000
  N   N39       1.0  0.93233  0.33036  0.99805  1.0000
  C   C710      1.0  0.91374  0.02074  0.14095  1.0000
  C   C711      1.0  0.94198  0.35015  0.01463  1.0000
  C   C712      1.0  0.92824  0.29134  0.00104  1.0000
  C   C713      1.0  0.89436  0.32487  0.99126  1.0000
  C   C714      1.0  0.62499  0.02047  0.14568  1.0000
  H   H1257     1.0  0.76096  0.32440  0.21426  1.0000
  C   C715      1.0  0.90142  0.26679  0.01579  1.0000
  C   C716      1.0  0.96445  0.39439  0.01410  1.0000
  C   C717      1.0  0.53547  0.47695  0.02003  1.0000
  H   H1258     1.0  0.56935  0.43740  0.13697  1.0000
  C   C718      1.0  0.96508  0.35200  0.98578  1.0000
  C   C719      1.0  0.89609  0.22659  0.01629  1.0000
  H   H1259     1.0  0.98409  0.26792  0.08046  1.0000
  H   H1260     1.0  0.79060  0.30634  0.13963  1.0000
  H   H1261     1.0  0.91519  0.34026  0.02216  1.0000
  H   H1262     1.0  0.56369  0.44275  0.01778  1.0000
  H   H1263     1.0  0.95710  0.29405  0.00352  1.0000
  H   H1264     1.0  0.91697  0.27403  0.98964  1.0000
  H   H1265     1.0  0.88977  0.36863  0.19705  1.0000
  H   H1266     1.0  0.87128  0.31081  0.00089  1.0000
  H   H1267     1.0  0.92661  0.05195  0.16415  1.0000
  C   C720      1.0  0.77479  0.23277  0.11975  1.0000
  H   H1268     1.0  0.85436  0.27394  0.15966  1.0000
  H   H1269     1.0  0.56835  0.44913  0.98650  1.0000
  H   H1270     1.0  0.98048  0.40115  0.04050  1.0000
  H   H1271     1.0  0.50351  0.16345  0.20958  1.0000
  H   H1272     1.0  0.97561  0.04436  0.13730  1.0000
  H   H1273     1.0  0.68500  0.31400  0.21461  1.0000
  C   C721      1.0  0.98913  0.47821  0.98781  1.0000
  N   N40       1.0  0.68322  0.00649  0.18257  1.0000
  H   H1274     1.0  0.90593  0.02500  0.12803  1.0000
  H   H1275     1.0  0.77974  0.24952  0.15358  1.0000
  C   C722      1.0  0.66952  0.35679  0.20725  1.0000
  H   H1276     1.0  0.92619  0.42903  0.21203  1.0000
  H   H1277     1.0  0.65494  0.24722  0.20769  1.0000
  C   C723      1.0  0.50390  0.20491  0.17184  1.0000
  C   C724      1.0  0.71560  0.00407  0.17405  1.0000
  H   H1278     1.0  0.64367  0.36036  0.20696  1.0000
  C   C725      1.0  0.94255  0.02658  0.08707  1.0000
  H   H1279     1.0  0.89365  0.05776  0.15029  1.0000
  H   H1280     1.0  0.78741  0.01822  0.16290  1.0000
  C   C726      1.0  0.96081  0.02459  0.10363  1.0000
  C   C727      1.0  0.51018  0.17227  0.19655  1.0000
  H   H1281     1.0  0.67123  0.04629  0.19499  1.0000
  H   H1282     1.0  0.97016  0.38121  0.98325  1.0000
  C   C728      1.0  0.89310  0.36113  0.98524  1.0000
  H   H1283     1.0  0.91729  0.37979  0.97672  1.0000
  H   H1284     1.0  0.63266  0.04278  0.13563  1.0000
  C   C729      1.0  0.91771  0.50146  0.19219  1.0000
  C   C730      1.0  0.59734  0.49879  0.13268  1.0000
  C   C731      1.0  0.94240  0.48610  0.97054  1.0000
  H   H1285     1.0  0.71360  0.49547  0.10305  1.0000
  C   C732      1.0  0.62694  0.24720  0.20726  1.0000
  H   H1286     1.0  0.55750  0.24274  0.97567  1.0000
  H   H1287     1.0  0.89036  0.48098  0.18610  1.0000
  H   H1288     1.0  0.85344  0.41457  0.21431  1.0000
  H   H1289     1.0  0.59305  0.22757  0.97907  1.0000
  H   H1290     1.0  0.98927  0.27168  0.02674  1.0000
  H   H1291     1.0  0.88432  0.30470  0.98077  1.0000
  H   H1292     1.0  0.83699  0.01148  0.10227  1.0000
  H   H1293     1.0  0.98951  0.02817  0.10083  1.0000
  C   C733      1.0  0.96303  0.05573  0.03873  1.0000
  H   H1294     1.0  0.93973  0.04667  0.04823  1.0000
  C   C734      1.0  0.85671  0.44299  0.21650  1.0000
  H   H1295     1.0  0.94975  0.04663  0.02620  1.0000
  H   H1296     1.0  0.54968  0.46061  0.14932  1.0000
  H   H1297     1.0  0.68167  0.34193  0.97878  1.0000
  H   H1298     1.0  0.66040  0.48834  0.12070  1.0000
  H   H1299     1.0  0.56368  0.49276  0.04439  1.0000
  H   H1300     1.0  0.73320  0.36074  0.97823  1.0000
  H   H1301     1.0  0.52664  0.42572  0.03380  1.0000
  H   H1302     1.0  0.51341  0.41902  0.01199  1.0000
  H   H1303     1.0  0.50614  0.47113  0.02342  1.0000
  C   C735      1.0  0.85582  0.35079  0.97568  1.0000
  C   C736      1.0  0.57115  0.22729  0.97024  1.0000
  H   H1304     1.0  0.64959  0.02394  0.97849  1.0000
  C   C737      1.0  0.70856  0.36109  0.97174  1.0000
  H   H1305     1.0  0.96130  0.30670  0.96991  1.0000
  H   H1306     1.0  0.52054  0.01250  0.21573  1.0000
  H   H1307     1.0  0.85528  0.37726  0.97192  1.0000
  H   H1308     1.0  0.71351  0.39068  0.97175  1.0000
  H   H1309     1.0  0.62326  0.04391  0.96793  1.0000
  H   H1310     1.0  0.70603  0.03444  0.21713  1.0000
  Fe  Fe87      1.0  0.56830  0.42011  0.41555  1.0000
  S   S171      1.0  0.58664  0.42721  0.44239  1.0000
  H   H1311     1.0  0.68357  0.37597  0.23298  1.0000
  S   S172      1.0  0.96163  0.12596  0.36160  1.0000
  Fe  Fe88      1.0  0.64551  0.46916  0.43234  1.0000
  S   S173      1.0  0.69567  0.46564  0.44413  1.0000
  H   H1312     1.0  0.79312  0.02435  0.34772  1.0000
  S   S174      1.0  0.62799  0.45904  0.40541  1.0000
  Fe  Fe89      1.0  0.82063  0.38042  0.41454  1.0000
  S   S175      1.0  0.80862  0.35852  0.44115  1.0000
  S   S176      1.0  0.79847  0.41760  0.40251  1.0000
  Fe  Fe90      1.0  0.86667  0.33961  0.40751  1.0000
  S   S177      1.0  0.85810  0.31540  0.43385  1.0000
  S   S178      1.0  0.89545  0.32815  0.38561  1.0000
  Fe  Fe91      1.0  0.79655  0.30268  0.43078  1.0000
  S   S179      1.0  0.74580  0.24674  0.44018  1.0000
  Fe  Fe92      1.0  0.87105  0.37371  0.44169  1.0000
  C   C738      1.0  0.98332  0.00606  0.37827  1.0000
  S   S180      1.0  0.80432  0.32343  0.40405  1.0000
  S   S181      1.0  0.88404  0.39919  0.41554  1.0000
  Fe  Fe93      1.0  0.94620  0.12167  0.33444  1.0000
  C   C739      1.0  0.77579  0.03158  0.33886  1.0000
  S   S182      1.0  0.89844  0.06828  0.32258  1.0000
  H   H1313     1.0  0.61139  0.00962  0.24391  1.0000
  S   S183      1.0  0.95344  0.18071  0.33235  1.0000
  Fe  Fe94      1.0  0.52895  0.12925  0.41345  1.0000
  S   S184      1.0  0.58769  0.15554  0.40074  1.0000
  H   H1314     1.0  0.51950  0.46225  0.24004  1.0000
  C   C740      1.0  0.91165  0.29443  0.38476  1.0000
  C   C741      1.0  0.92166  0.28654  0.36915  1.0000
  C   C742      1.0  0.93472  0.26002  0.36788  1.0000
  C   C743      1.0  0.93769  0.24089  0.38225  1.0000
  C   C744      1.0  0.92782  0.24891  0.39786  1.0000
  C   C745      1.0  0.91510  0.27567  0.39914  1.0000
  H   H1315     1.0  0.91933  0.30108  0.35796  1.0000
  H   H1316     1.0  0.94223  0.25417  0.35580  1.0000
  H   H1317     1.0  0.93031  0.23449  0.40906  1.0000
  H   H1318     1.0  0.90848  0.28217  0.41126  1.0000
  C   C746      1.0  0.70106  0.22456  0.42949  1.0000
  C   C747      1.0  0.69829  0.23300  0.41259  1.0000
  C   C748      1.0  0.66312  0.21231  0.40400  1.0000
  C   C749      1.0  0.63018  0.18364  0.41234  1.0000
  C   C750      1.0  0.63262  0.17607  0.42939  1.0000
  C   C751      1.0  0.66804  0.19613  0.43786  1.0000
  H   H1319     1.0  0.72363  0.25441  0.40602  1.0000
  H   H1320     1.0  0.66157  0.21808  0.39078  1.0000
  H   H1321     1.0  0.60758  0.15383  0.43591  1.0000
  H   H1322     1.0  0.66994  0.18934  0.45093  1.0000
  C   C752      1.0  0.98112  0.50163  0.22944  1.0000
  C   C753      1.0  0.95891  0.47126  0.45187  1.0000
  H   H1323     1.0  0.94875  0.45948  0.43966  1.0000
  C   C754      1.0  0.72272  0.45111  0.43221  1.0000
  C   C755      1.0  0.72658  0.45730  0.41483  1.0000
  C   C756      1.0  0.75019  0.44723  0.40586  1.0000
  C   C757      1.0  0.76888  0.42965  0.41409  1.0000
  C   C758      1.0  0.76413  0.42260  0.43138  1.0000
  C   C759      1.0  0.74186  0.43406  0.44045  1.0000
  C   C760      1.0  0.89929  0.47183  0.22047  1.0000
  H   H1324     1.0  0.75384  0.45293  0.39248  1.0000
  H   H1325     1.0  0.77823  0.40905  0.43784  1.0000
  H   H1326     1.0  0.97424  0.34328  0.44486  1.0000
  S   S185      1.0  0.54840  0.48631  0.46463  1.0000
  H   H1327     1.0  0.72192  0.00457  0.32578  1.0000
  H   H1328     1.0  0.97854  0.47307  0.22871  1.0000
  C   C761      1.0  0.50303  0.28566  0.40576  1.0000
  S   S186      1.0  0.53110  0.36278  0.40365  1.0000
  H   H1329     1.0  0.83144  0.46518  0.23390  1.0000
  H   H1330     1.0  0.55539  0.07708  0.46255  1.0000
  C   C762      1.0  0.87240  0.02521  0.35210  1.0000
  C   C763      1.0  0.87319  0.02543  0.33460  1.0000
  H   H1331     1.0  0.86400  0.47536  0.42988  1.0000
  H   H1332     1.0  0.88719  0.05179  0.35856  1.0000
  H   H1333     1.0  0.63113  0.32224  0.45005  1.0000
  H   H1334     1.0  0.61871  0.35801  0.45516  1.0000
  H   H1335     1.0  0.98205  0.09215  0.29656  1.0000
  H   H1336     1.0  0.72452  0.38339  0.22050  1.0000
  H   H1337     1.0  0.80018  0.41645  0.22835  1.0000
  C   C764      1.0  0.51947  0.31969  0.41456  1.0000
  C   C765      1.0  0.95514  0.01238  0.38917  1.0000
  H   H1338     1.0  0.98061  0.07341  0.38418  1.0000
  H   H1339     1.0  0.81760  0.45518  0.45961  1.0000
  H   H1340     1.0  0.66824  0.37192  0.45084  1.0000
  H   H1341     1.0  0.58213  0.23788  0.22578  1.0000
  H   H1342     1.0  0.81827  0.18509  0.44620  1.0000
  H   H1343     1.0  0.95468  0.03496  0.31505  1.0000
  C   C766      1.0  0.97568  0.35803  0.45657  1.0000
  C   C767      1.0  0.59793  0.19462  0.22992  1.0000
  C   C768      1.0  0.60868  0.23559  0.22505  1.0000
  H   H1344     1.0  0.96392  0.50162  0.24026  1.0000
  H   H1345     1.0  0.82149  0.49572  0.43628  1.0000
  H   H1346     1.0  0.50312  0.37466  0.45807  1.0000
  S   S187      1.0  0.95252  0.20610  0.38143  1.0000
  H   H1347     1.0  0.71239  0.47094  0.40841  1.0000
  H   H1348     1.0  0.76858  0.05148  0.34506  1.0000
  H   H1349     1.0  0.51932  0.39637  0.23964  1.0000
  S   S188      1.0  0.52087  0.13653  0.44052  1.0000
  Fe  Fe95      1.0  0.57539  0.47653  0.44177  1.0000
  N   N41       1.0  0.78697  0.18863  0.39566  1.0000
  C   C769      1.0  0.74725  0.15682  0.39118  1.0000
  C   C770      1.0  0.81788  0.18058  0.38939  1.0000
  C   C771      1.0  0.78911  0.18967  0.41458  1.0000
  C   C772      1.0  0.79391  0.22701  0.38914  1.0000
  C   C773      1.0  0.79063  0.23139  0.36998  1.0000
  C   C774      1.0  0.71268  0.16151  0.39663  1.0000
  C   C775      1.0  0.82953  0.21601  0.42214  1.0000
  C   C776      1.0  0.81000  0.15901  0.37276  1.0000
  C   C777      1.0  0.84609  0.15901  0.36654  1.0000
  C   C778      1.0  0.79112  0.26860  0.36530  1.0000
  C   C779      1.0  0.67431  0.12739  0.39153  1.0000
  C   C780      1.0  0.96482  0.03298  0.30244  1.0000
  H   H1350     1.0  0.74293  0.12926  0.39669  1.0000
  H   H1351     1.0  0.74411  0.15273  0.37749  1.0000
  H   H1352     1.0  0.84600  0.20762  0.38808  1.0000
  H   H1353     1.0  0.82308  0.16249  0.39873  1.0000
  H   H1354     1.0  0.77875  0.16046  0.42006  1.0000
  H   H1355     1.0  0.76976  0.19950  0.41965  1.0000
  H   H1356     1.0  0.77438  0.23503  0.39550  1.0000
  H   H1357     1.0  0.82347  0.24979  0.39240  1.0000
  H   H1358     1.0  0.76356  0.20791  0.36495  1.0000
  H   H1359     1.0  0.81579  0.23237  0.36369  1.0000
  H   H1360     1.0  0.71170  0.16359  0.41040  1.0000
  H   H1361     1.0  0.71437  0.18732  0.39051  1.0000
  H   H1362     1.0  0.84030  0.24593  0.41796  1.0000
  H   H1363     1.0  0.85095  0.20765  0.41845  1.0000
  H   H1364     1.0  0.78721  0.12877  0.37483  1.0000
  H   H1365     1.0  0.80026  0.17158  0.36264  1.0000
  H   H1366     1.0  0.83892  0.14088  0.35544  1.0000
  H   H1367     1.0  0.86860  0.18836  0.36278  1.0000
  H   H1368     1.0  0.85797  0.14773  0.37643  1.0000
  H   H1369     1.0  0.81817  0.29346  0.36968  1.0000
  H   H1370     1.0  0.78961  0.27145  0.35148  1.0000
  H   H1371     1.0  0.76598  0.26891  0.37095  1.0000
  H   H1372     1.0  0.67264  0.12477  0.37770  1.0000
  H   H1373     1.0  0.67070  0.10063  0.39753  1.0000
  H   H1374     1.0  0.65007  0.13134  0.39567  1.0000
  C   C781      1.0  0.83046  0.43787  0.23131  1.0000
  C   C782      1.0  0.52526  0.31848  0.43181  1.0000
  C   C783      1.0  0.63785  0.35206  0.44736  1.0000
  H   H1375     1.0  0.54507  0.43441  0.21746  1.0000
  H   H1376     1.0  0.80779  0.22391  0.44573  1.0000
  C   C784      1.0  0.51395  0.28339  0.44025  1.0000
  Fe  Fe96      1.0  0.97333  0.18660  0.35920  1.0000
  H   H1377     1.0  0.83935  0.42777  0.24272  1.0000
  H   H1378     1.0  0.85706  0.23385  0.44632  1.0000
  H   H1379     1.0  0.58499  0.18729  0.24266  1.0000
  S   S189      1.0  0.55231  0.46636  0.41554  1.0000
  N   N42       1.0  0.64541  0.34318  0.39937  1.0000
  C   C785      1.0  0.65861  0.35183  0.41728  1.0000
  C   C786      1.0  0.67783  0.34518  0.38903  1.0000
  C   C787      1.0  0.63766  0.37430  0.39275  1.0000
  C   C788      1.0  0.60911  0.30503  0.39773  1.0000
  C   C789      1.0  0.60296  0.27317  0.41085  1.0000
  C   C790      1.0  0.63115  0.35767  0.42887  1.0000
  C   C791      1.0  0.62749  0.37307  0.37385  1.0000
  C   C792      1.0  0.69098  0.31587  0.39351  1.0000
  C   C793      1.0  0.72339  0.32124  0.38176  1.0000
  C   C794      1.0  0.57303  0.23412  0.40483  1.0000
  H   H1380     1.0  0.58970  0.48887  0.23480  1.0000
  C   C795      1.0  0.61421  0.40173  0.36917  1.0000
  H   H1381     1.0  0.68709  0.37812  0.41771  1.0000
  H   H1382     1.0  0.66427  0.32981  0.42310  1.0000
  H   H1383     1.0  0.66935  0.34034  0.37567  1.0000
  H   H1384     1.0  0.70368  0.37425  0.38955  1.0000
  H   H1385     1.0  0.66305  0.40291  0.39502  1.0000
  H   H1386     1.0  0.61312  0.37339  0.39965  1.0000
  H   H1387     1.0  0.58291  0.30807  0.39866  1.0000
  H   H1388     1.0  0.60757  0.29401  0.38497  1.0000
  H   H1389     1.0  0.59234  0.27780  0.42284  1.0000
  H   H1390     1.0  0.62952  0.27188  0.41365  1.0000
  H   H1391     1.0  0.63602  0.38712  0.42698  1.0000
  H   H1392     1.0  0.60054  0.33765  0.42599  1.0000
  H   H1393     1.0  0.60410  0.34429  0.37052  1.0000
  H   H1394     1.0  0.65322  0.38090  0.36598  1.0000
  H   H1395     1.0  0.70183  0.31881  0.40655  1.0000
  H   H1396     1.0  0.66691  0.28650  0.39174  1.0000
  H   H1397     1.0  0.71397  0.31857  0.36849  1.0000
  H   H1398     1.0  0.74935  0.34962  0.38336  1.0000
  H   H1399     1.0  0.73134  0.29902  0.38462  1.0000
  H   H1400     1.0  0.56696  0.21248  0.41502  1.0000
  H   H1401     1.0  0.54586  0.23376  0.40142  1.0000
  H   H1402     1.0  0.58405  0.22649  0.39376  1.0000
  H   H1403     1.0  0.90670  0.45848  0.23121  1.0000
  H   H1404     1.0  0.73904  0.42926  0.45389  1.0000
  C   C796      1.0  0.96392  0.06378  0.29111  1.0000
  H   H1405     1.0  0.60723  0.40016  0.35561  1.0000
  H   H1406     1.0  0.58792  0.39537  0.37633  1.0000
  H   H1407     1.0  0.63743  0.43120  0.37171  1.0000
  H   H1408     1.0  0.88347  0.47533  0.40005  1.0000
  H   H1409     1.0  0.79362  0.04637  0.32758  1.0000
  H   H1410     1.0  0.62952  0.25397  0.23460  1.0000
  C   C797      1.0  0.69690  0.38386  0.22031  1.0000
  H   H1411     1.0  0.53785  0.34444  0.43873  1.0000
  H   H1412     1.0  0.93399  0.05887  0.29000  1.0000
  H   H1413     1.0  0.64314  0.30982  0.22447  1.0000
  H   H1414     1.0  0.62405  0.19143  0.23004  1.0000
  H   H1415     1.0  0.96395  0.01698  0.40246  1.0000
  C   C798      1.0  0.82789  0.21447  0.44127  1.0000
  H   H1416     1.0  0.90048  0.49788  0.22536  1.0000
  H   H1417     1.0  0.95300  0.36637  0.45597  1.0000
  H   H1418     1.0  0.85266  0.44190  0.45370  1.0000
  C   C799      1.0  0.50041  0.47750  0.46527  1.0000
  C   C800      1.0  0.95245  0.04688  0.38266  1.0000
  H   H1419     1.0  0.97533  0.06418  0.27846  1.0000
  H   H1420     1.0  0.57647  0.17435  0.22104  1.0000
  C   C801      1.0  0.51117  0.46016  0.22658  1.0000
  H   H1421     1.0  0.51775  0.28254  0.45367  1.0000
  H   H1422     1.0  0.93014  0.04938  0.38981  1.0000
  H   H1423     1.0  0.94439  0.04392  0.36921  1.0000
  H   H1424     1.0  0.99531  0.03977  0.30345  1.0000
  C   C802      1.0  0.94226  0.44865  0.46630  1.0000
  H   H1425     1.0  0.51151  0.48739  0.22338  1.0000
  C   C803      1.0  0.59977  0.01500  0.21783  1.0000
  H   H1426     1.0  0.76239  0.09793  0.22189  1.0000
  C   C804      1.0  0.58382  0.49346  0.22154  1.0000
  H   H1427     1.0  0.90603  0.50070  0.46369  1.0000
  S   S190      1.0  0.62686  0.06546  0.21775  1.0000
  H   H1428     1.0  0.60715  0.09958  0.46432  1.0000
  H   H1429     1.0  0.91380  0.50133  0.43432  1.0000
  S   S191      1.0  0.90539  0.40054  0.46525  1.0000
  C   C805      1.0  0.87856  0.50114  0.46176  1.0000
  C   C806      1.0  0.84633  0.45862  0.46261  1.0000
  H   H1430     1.0  0.57506  0.02875  0.46590  1.0000
  H   H1431     1.0  0.49850  0.28638  0.39240  1.0000
  H   H1432     1.0  0.70321  0.41331  0.21719  1.0000
  S   S192      1.0  0.54850  0.15028  0.66677  1.0000
  Fe  Fe97      1.0  0.62008  0.45627  0.67184  1.0000
  S   S193      1.0  0.63880  0.46196  0.69859  1.0000
  S   S194      1.0  0.57173  0.40275  0.66057  1.0000
  S   S195      1.0  0.73931  0.46831  0.70026  1.0000
  Fe  Fe98      1.0  0.82546  0.26451  0.66611  1.0000
  S   S196      1.0  0.81707  0.24358  0.69299  1.0000
  S   S197      1.0  0.84147  0.24151  0.64384  1.0000
  Fe  Fe99      1.0  0.80800  0.32823  0.67345  1.0000
  S   S198      1.0  0.79894  0.31245  0.70076  1.0000
  S   S199      1.0  0.79783  0.37323  0.66056  1.0000
  Fe  Fe100     1.0  0.85169  0.30596  0.69913  1.0000
  H   H1433     1.0  0.87603  0.09650  0.63483  1.0000
  Fe  Fe101     1.0  0.76527  0.25220  0.69228  1.0000
  S   S200      1.0  0.70812  0.21040  0.70462  1.0000
  S   S201      1.0  0.86349  0.32648  0.67221  1.0000
  S   S202      1.0  0.77117  0.26823  0.66498  1.0000
  Fe  Fe102     1.0  0.80294  0.04631  0.60721  1.0000
  S   S203      1.0  0.81656  0.07503  0.58168  1.0000
  S   S204      1.0  0.79220  0.06875  0.63119  1.0000
  Fe  Fe103     1.0  0.86070  0.05572  0.58033  1.0000
  S   S205      1.0  0.92012  0.09409  0.56885  1.0000
  S   S206      1.0  0.84995  0.03092  0.60653  1.0000
  C   C807      1.0  0.96357  0.10277  0.57880  1.0000
  H   H1434     1.0  0.73325  0.44864  0.66524  1.0000
  C   C808      1.0  0.96401  0.08992  0.59523  1.0000
  H   H1435     1.0  0.60167  0.05271  0.70212  1.0000
  H   H1436     1.0  0.93717  0.07246  0.60187  1.0000
  C   C809      1.0  0.57526  0.04398  0.47723  1.0000
  C   C810      1.0  0.82628  0.19309  0.64059  1.0000
  C   C811      1.0  0.82870  0.18199  0.62439  1.0000
  C   C812      1.0  0.81888  0.14414  0.62133  1.0000
  C   C813      1.0  0.80610  0.11694  0.63447  1.0000
  C   C814      1.0  0.80319  0.12796  0.65066  1.0000
  C   C815      1.0  0.81331  0.16592  0.65374  1.0000
  H   H1437     1.0  0.83796  0.20278  0.61413  1.0000
  H   H1438     1.0  0.82083  0.13591  0.60878  1.0000
  H   H1439     1.0  0.79317  0.10700  0.66088  1.0000
  H   H1440     1.0  0.81143  0.17421  0.66628  1.0000
  C   C816      1.0  0.96439  0.35399  0.70657  1.0000
  H   H1441     1.0  0.78220  0.50003  0.64904  1.0000
  H   H1442     1.0  0.83481  0.45487  0.48943  1.0000
  H   H1443     1.0  0.94936  0.34583  0.69474  1.0000
  C   C817      1.0  0.77828  0.39631  0.67201  1.0000
  C   C818      1.0  0.76068  0.41442  0.66336  1.0000
  C   C819      1.0  0.74691  0.43502  0.67203  1.0000
  C   C820      1.0  0.75192  0.43884  0.68933  1.0000
  C   C821      1.0  0.76922  0.42048  0.69803  1.0000
  C   C822      1.0  0.78187  0.39881  0.68943  1.0000
  H   H1444     1.0  0.75770  0.41248  0.64989  1.0000
  H   H1445     1.0  0.71104  0.05734  0.61850  1.0000
  H   H1446     1.0  0.79595  0.38549  0.69617  1.0000
  H   H1447     1.0  0.56723  0.13562  0.70046  1.0000
  C   C823      1.0  0.98628  0.50199  0.48346  1.0000
  C   C824      1.0  0.53160  0.32508  0.66455  1.0000
  C   C825      1.0  0.54762  0.35997  0.67265  1.0000
  C   C826      1.0  0.54332  0.35996  0.68999  1.0000
  H   H1448     1.0  0.55457  0.39743  0.47993  1.0000
  H   H1449     1.0  0.57826  0.09835  0.48192  1.0000
  H   H1450     1.0  0.50049  0.47956  0.49214  1.0000
  H   H1451     1.0  0.55534  0.38672  0.69633  1.0000
  C   C827      1.0  0.59155  0.17201  0.67863  1.0000
  C   C828      1.0  0.59330  0.15762  0.69457  1.0000
  H   H1452     1.0  0.99591  0.42283  0.47384  1.0000
  C   C829      1.0  0.66354  0.19782  0.69474  1.0000
  C   C830      1.0  0.66170  0.21325  0.67905  1.0000
  C   C831      1.0  0.62585  0.20030  0.67102  1.0000
  H   H1453     1.0  0.88513  0.22432  0.67494  1.0000
  H   H1454     1.0  0.50244  0.06451  0.65731  1.0000
  H   H1455     1.0  0.68790  0.23461  0.67294  1.0000
  H   H1456     1.0  0.62478  0.21156  0.65867  1.0000
  H   H1457     1.0  0.90975  0.27577  0.67587  1.0000
  H   H1458     1.0  0.91180  0.08173  0.63616  1.0000
  H   H1459     1.0  0.99585  0.48230  0.71486  1.0000
  C   C832      1.0  0.62911  0.17049  0.70260  1.0000
  H   H1460     1.0  0.66485  0.02532  0.50090  1.0000
  H   H1461     1.0  0.94729  0.25233  0.59961  1.0000
  H   H1462     1.0  0.93122  0.25276  0.66481  1.0000
  N   N43       1.0  0.68983  0.13986  0.64001  1.0000
  C   C833      1.0  0.65138  0.12958  0.63205  1.0000
  C   C834      1.0  0.70530  0.11520  0.63336  1.0000
  C   C835      1.0  0.68294  0.13167  0.65863  1.0000
  C   C836      1.0  0.71901  0.18159  0.63747  1.0000
  C   C837      1.0  0.72772  0.19688  0.61912  1.0000
  C   C838      1.0  0.63100  0.15115  0.63819  1.0000
  C   C839      1.0  0.71847  0.13796  0.66921  1.0000
  C   C840      1.0  0.69404  0.10099  0.61518  1.0000
  H   H1463     1.0  0.67393  0.08592  0.50853  1.0000
  C   C841      1.0  0.75400  0.24015  0.61836  1.0000
  C   C842      1.0  0.59550  0.14225  0.62755  1.0000
  C   C843      1.0  0.70656  0.12249  0.68715  1.0000
  H   H1464     1.0  0.63084  0.09854  0.63420  1.0000
  H   H1465     1.0  0.65403  0.13397  0.61826  1.0000
  H   H1466     1.0  0.73740  0.13015  0.63421  1.0000
  H   H1467     1.0  0.69514  0.08866  0.64127  1.0000
  H   H1468     1.0  0.65936  0.10173  0.66095  1.0000
  H   H1469     1.0  0.67299  0.15023  0.66421  1.0000
  H   H1470     1.0  0.71039  0.19951  0.64453  1.0000
  H   H1471     1.0  0.74735  0.18795  0.64293  1.0000
  H   H1472     1.0  0.70111  0.19062  0.61217  1.0000
  H   H1473     1.0  0.74302  0.18426  0.61268  1.0000
  H   H1474     1.0  0.62072  0.14215  0.65126  1.0000
  H   H1475     1.0  0.65048  0.18245  0.63749  1.0000
  H   H1476     1.0  0.73966  0.16890  0.66986  1.0000
  H   H1477     1.0  0.73310  0.12344  0.66392  1.0000
  H   H1478     1.0  0.99700  0.03563  0.58104  1.0000
  H   H1479     1.0  0.70057  0.12470  0.60609  1.0000
  H   H1480     1.0  0.63710  0.32723  0.64743  1.0000
  C   C844      1.0  0.95608  0.46418  0.48207  1.0000
  H   H1481     1.0  0.96726  0.25527  0.63144  1.0000
  H   H1482     1.0  0.73980  0.25449  0.62434  1.0000
  H   H1483     1.0  0.78176  0.24837  0.62481  1.0000
  H   H1484     1.0  0.76040  0.25041  0.60510  1.0000
  H   H1485     1.0  0.60379  0.15110  0.61425  1.0000
  H   H1486     1.0  0.57409  0.11131  0.62840  1.0000
  H   H1487     1.0  0.58161  0.15817  0.63222  1.0000
  H   H1488     1.0  0.68792  0.09100  0.68733  1.0000
  H   H1489     1.0  0.73271  0.12978  0.69476  1.0000
  H   H1490     1.0  0.69067  0.13528  0.69297  1.0000
  H   H1491     1.0  0.74029  0.33764  0.71501  1.0000
  C   C845      1.0  0.55954  0.01031  0.52041  1.0000
  C   C846      1.0  0.92946  0.18000  0.59112  1.0000
  C   C847      1.0  0.90738  0.10680  0.63629  1.0000
  H   H1492     1.0  0.59379  0.32734  0.68134  1.0000
  H   H1493     1.0  0.96097  0.14322  0.62403  1.0000
  C   C848      1.0  0.93461  0.24860  0.69187  1.0000
  H   H1494     1.0  0.93672  0.29470  0.63778  1.0000
  H   H1495     1.0  0.71043  0.05991  0.52496  1.0000
  H   H1496     1.0  0.89283  0.01472  0.58160  1.0000
  H   H1497     1.0  0.89839  0.48289  0.68497  1.0000
  H   H1498     1.0  0.53160  0.06302  0.68468  1.0000
  H   H1499     1.0  0.53521  0.32492  0.65116  1.0000
  H   H1500     1.0  0.74644  0.10092  0.60797  1.0000
  H   H1501     1.0  0.89314  0.15935  0.62157  1.0000
  H   H1502     1.0  0.94155  0.20706  0.54843  1.0000
  H   H1503     1.0  0.57617  0.30004  0.70947  1.0000
  H   H1504     1.0  0.91709  0.12052  0.64858  1.0000
  H   H1505     1.0  0.95751  0.17715  0.55890  1.0000
  C   C849      1.0  0.71517  0.08050  0.60941  1.0000
  H   H1506     1.0  0.93819  0.22311  0.69138  1.0000
  C   C850      1.0  0.68733  0.06353  0.53078  1.0000
  H   H1507     1.0  0.55951  0.19590  0.70968  1.0000
  H   H1508     1.0  0.95889  0.30604  0.61732  1.0000
  H   H1509     1.0  0.87188  0.44372  0.48381  1.0000
  C   C851      1.0  0.65828  0.06162  0.51760  1.0000
  H   H1510     1.0  0.70097  0.09162  0.53681  1.0000
  S   S207      1.0  0.67956  0.47676  0.66166  1.0000
  H   H1511     1.0  0.91984  0.11904  0.61019  1.0000
  H   H1512     1.0  0.70390  0.06772  0.59706  1.0000
  H   H1513     1.0  0.93457  0.48108  0.70994  1.0000
  N   N44       1.0  0.94418  0.19909  0.60765  1.0000
  C   C852      1.0  0.91380  0.25045  0.67595  1.0000
  C   C853      1.0  0.60858  0.04970  0.48922  1.0000
  H   H1514     1.0  0.91346  0.27534  0.70838  1.0000
  C   C854      1.0  0.98774  0.21851  0.60917  1.0000
  N   N45       1.0  0.63446  0.32778  0.69960  1.0000
  C   C855      1.0  0.92477  0.16997  0.62174  1.0000
  Fe  Fe104     1.0  0.69883  0.48652  0.68832  1.0000
  C   C856      1.0  0.62159  0.32726  0.68168  1.0000
  H   H1515     1.0  0.71907  0.29444  0.70305  1.0000
  C   C857      1.0  0.50651  0.29030  0.69098  1.0000
  H   H1516     1.0  0.50915  0.09021  0.71298  1.0000
  C   C858      1.0  0.65022  0.36053  0.66998  1.0000
  H   H1517     1.0  0.92017  0.21943  0.57484  1.0000
  H   H1518     1.0  0.54082  0.38691  0.50169  1.0000
  C   C859      1.0  0.53281  0.39429  0.48933  1.0000
  H   H1519     1.0  0.99622  0.21987  0.62259  1.0000
  C   C860      1.0  0.93613  0.18717  0.55929  1.0000
  H   H1520     1.0  0.91598  0.22741  0.63535  1.0000
  H   H1521     1.0  0.81853  0.50196  0.67346  1.0000
  H   H1522     1.0  0.59403  0.00521  0.70584  1.0000
  H   H1523     1.0  0.61576  0.30043  0.67570  1.0000
  H   H1524     1.0  0.56010  0.03657  0.51553  1.0000
  H   H1525     1.0  0.69655  0.35327  0.69796  1.0000
  H   H1526     1.0  0.66263  0.08018  0.61456  1.0000
  H   H1527     1.0  0.63617  0.06598  0.48208  1.0000
  H   H1528     1.0  0.56449  0.25005  0.69185  1.0000
  C   C861      1.0  0.58706  0.02678  0.71042  1.0000
  H   H1529     1.0  0.67954  0.36407  0.67094  1.0000
  H   H1530     1.0  0.65148  0.38766  0.67320  1.0000
  N   N46       1.0  0.60593  0.01386  0.49702  1.0000
  Fe  Fe105     1.0  0.77400  0.01687  0.57215  1.0000
  H   H1531     1.0  0.65871  0.37800  0.64374  1.0000
  H   H1532     1.0  0.93519  0.18312  0.63412  1.0000
  C   C862      1.0  0.93026  0.13469  0.62196  1.0000
  H   H1533     1.0  0.93008  0.02381  0.56677  1.0000
  C   C863      1.0  0.64035  0.02349  0.50825  1.0000
  C   C864      1.0  0.93185  0.22876  0.60905  1.0000
  H   H1534     1.0  0.90695  0.27739  0.61946  1.0000
  H   H1535     1.0  0.54690  0.02769  0.48360  1.0000
  H   H1536     1.0  0.98421  0.26199  0.71553  1.0000
  H   H1537     1.0  0.89733  0.16212  0.59142  1.0000
  H   H1538     1.0  0.96995  0.23170  0.57639  1.0000
  C   C865      1.0  0.51180  0.29040  0.67373  1.0000
  C   C866      1.0  0.63780  0.35347  0.65168  1.0000
  H   H1539     1.0  0.93954  0.15946  0.58882  1.0000
  H   H1540     1.0  0.96358  0.27462  0.69167  1.0000
  C   C867      1.0  0.64195  0.36495  0.70682  1.0000
  H   H1541     1.0  0.60982  0.06929  0.49891  1.0000
  H   H1542     1.0  0.53348  0.42200  0.49027  1.0000
  C   C868      1.0  0.56814  0.22377  0.71519  1.0000
  H   H1543     1.0  0.50039  0.26377  0.66742  1.0000
  H   H1544     1.0  0.90060  0.21622  0.60604  1.0000
  S   S208      1.0  0.73227  0.00831  0.55074  1.0000
  C   C869      1.0  0.94002  0.20751  0.57558  1.0000
  H   H1545     1.0  0.53565  0.46193  0.70105  1.0000
  H   H1546     1.0  0.94326  0.44684  0.49329  1.0000
  H   H1547     1.0  0.53368  0.00313  0.69711  1.0000
  H   H1548     1.0  0.60884  0.35070  0.65000  1.0000
  H   H1549     1.0  0.66502  0.38966  0.69968  1.0000
  C   C870      1.0  0.93836  0.24750  0.62632  1.0000
  C   C871      1.0  0.93506  0.28362  0.62507  1.0000
  H   H1550     1.0  0.67268  0.04088  0.54065  1.0000
  H   H1551     1.0  0.51848  0.32539  0.71246  1.0000
  H   H1552     1.0  0.67113  0.30813  0.68890  1.0000
  H   H1553     1.0  0.82189  0.41007  0.48005  1.0000
  H   H1554     1.0  0.88112  0.22636  0.70539  1.0000
  H   H1555     1.0  0.63631  0.06580  0.52400  1.0000
  H   H1556     1.0  0.55219  0.06798  0.71105  1.0000
  H   H1557     1.0  0.90658  0.16229  0.55815  1.0000
  C   C872      1.0  0.84368  0.44092  0.48008  1.0000
  C   C873      1.0  0.67066  0.32455  0.69977  1.0000
  C   C874      1.0  0.52239  0.32521  0.69909  1.0000
  C   C875      1.0  0.53003  0.48602  0.69878  1.0000
  H   H1558     1.0  0.86218  0.46470  0.66886  1.0000
  H   H1559     1.0  0.61556  0.36777  0.70556  1.0000
  C   C876      1.0  0.58656  0.25521  0.70163  1.0000
  C   C877      1.0  0.87180  0.48223  0.68022  1.0000
  C   C878      1.0  0.60135  0.29524  0.70898  1.0000
  H   H1560     1.0  0.58047  0.01734  0.53080  1.0000
  H   H1561     1.0  0.63247  0.00814  0.47464  1.0000
  C   C879      1.0  0.54330  0.01056  0.71021  1.0000
  C   C880      1.0  0.91201  0.24724  0.70777  1.0000
  C   C881      1.0  0.57949  0.08218  0.47119  1.0000
  H   H1562     1.0  0.61005  0.25260  0.69564  1.0000
  H   H1563     1.0  0.84922  0.46867  0.69005  1.0000
  H   H1564     1.0  0.51204  0.48036  0.68735  1.0000
  H   H1565     1.0  0.99760  0.43051  0.50402  1.0000
  H   H1566     1.0  0.63027  0.15854  0.71476  1.0000
  H   H1567     1.0  0.77328  0.42340  0.71143  1.0000
  C   C882      1.0  0.50040  0.05379  0.68417  1.0000
  H   H1568     1.0  0.99600  0.17036  0.60213  1.0000
  C   C883      1.0  0.71680  0.30749  0.71470  1.0000
  C   C884      1.0  0.67751  0.30505  0.71552  1.0000
  H   H1569     1.0  0.65579  0.27430  0.71632  1.0000
  H   H1570     1.0  0.89099  0.17924  0.71574  1.0000
  C   C885      1.0  0.50942  0.49001  0.71394  1.0000
  C   C886      1.0  0.53262  0.03955  0.71702  1.0000
  H   H1571     1.0  0.96964  0.33776  0.46734  1.0000
  Fe  Fe106     1.0  0.57762  0.08607  0.94364  1.0000
  S   S209      1.0  0.55525  0.07432  0.91731  1.0000
  H   H1572     1.0  0.85164  0.23973  0.72652  1.0000
  Fe  Fe107     1.0  0.65141  0.15936  0.93283  1.0000
  S   S210      1.0  0.63454  0.15154  0.90567  1.0000
  S   S211      1.0  0.70267  0.21020  0.94465  1.0000
  Fe  Fe108     1.0  0.57563  0.13723  0.91516  1.0000
  S   S212      1.0  0.54423  0.16511  0.90215  1.0000
  Fe  Fe109     1.0  0.61612  0.08941  0.91038  1.0000
  S   S213      1.0  0.62389  0.05301  0.89092  1.0000
  S   S214      1.0  0.59344  0.14779  0.94202  1.0000
  S   S215      1.0  0.63746  0.09822  0.93693  1.0000
  C   C887      1.0  0.95600  0.16963  0.84207  1.0000
  H   H1573     1.0  0.68618  0.36621  0.93233  1.0000
  H   H1574     1.0  0.84692  0.19425  0.73226  1.0000
  H   H1575     1.0  0.97205  0.26010  0.75357  1.0000
  Fe  Fe110     1.0  0.52398  0.38276  0.91877  1.0000
  S   S216      1.0  0.58338  0.42322  0.90820  1.0000
  H   H1576     1.0  0.92772  0.48299  0.73206  1.0000
  H   H1577     1.0  0.68566  0.37715  0.72614  1.0000
  S   S217      1.0  0.78882  0.46163  0.91322  1.0000
  N   N47       1.0  0.92494  0.23740  0.72417  1.0000
  Fe  Fe111     1.0  0.81737  0.42809  0.92162  1.0000
  S   S218      1.0  0.79832  0.37312  0.90799  1.0000
  S   S219      1.0  0.81039  0.43433  0.94892  1.0000
  H   H1578     1.0  0.54224  0.22323  0.72049  1.0000
  H   H1579     1.0  0.94792  0.35693  0.74797  1.0000
  C   C888      1.0  0.62403  0.43202  0.92033  1.0000
  C   C889      1.0  0.62045  0.42131  0.93732  1.0000
  C   C890      1.0  0.65347  0.43063  0.94696  1.0000
  C   C891      1.0  0.69024  0.44972  0.93960  1.0000
  C   C892      1.0  0.69389  0.45980  0.92252  1.0000
  C   C893      1.0  0.66087  0.45136  0.91296  1.0000
  H   H1580     1.0  0.59241  0.40671  0.94318  1.0000
  H   H1581     1.0  0.62572  0.22233  0.89706  1.0000
  Fe  Fe112     1.0  0.78587  0.47143  0.94029  1.0000
  H   H1582     1.0  0.66383  0.45980  0.89983  1.0000
  C   C894      1.0  0.92067  0.05923  0.83981  1.0000
  C   C895      1.0  0.95616  0.07858  0.83130  1.0000
  H   H1583     1.0  0.71323  0.34657  0.89584  1.0000
  C   C896      1.0  0.95369  0.08828  0.86558  1.0000
  C   C897      1.0  0.91949  0.06435  0.85696  1.0000
  H   H1584     1.0  0.95723  0.07484  0.81800  1.0000
  H   H1585     1.0  0.95255  0.09219  0.87886  1.0000
  H   H1586     1.0  0.89215  0.05019  0.86354  1.0000
  C   C898      1.0  0.73000  0.25512  0.93425  1.0000
  C   C899      1.0  0.74934  0.28803  0.94377  1.0000
  C   C900      1.0  0.77042  0.32435  0.93591  1.0000
  C   C901      1.0  0.77290  0.32800  0.91844  1.0000
  C   C902      1.0  0.75485  0.29497  0.90895  1.0000
  C   C903      1.0  0.73337  0.25871  0.91680  1.0000
  H   H1587     1.0  0.56119  0.49053  0.94569  1.0000
  H   H1588     1.0  0.78502  0.34944  0.94338  1.0000
  H   H1589     1.0  0.75744  0.29736  0.89545  1.0000
  H   H1590     1.0  0.71955  0.23348  0.90935  1.0000
  H   H1591     1.0  0.97336  0.29461  0.72512  1.0000
  H   H1592     1.0  0.81741  0.47197  0.88047  1.0000
  H   H1593     1.0  0.79955  0.47213  0.80413  1.0000
  H   H1594     1.0  0.61993  0.27673  0.90523  1.0000
  S   S220      1.0  0.87841  0.02964  0.82854  1.0000
  C   C904      1.0  0.65788  0.03654  0.89038  1.0000
  C   C905      1.0  0.99431  0.48108  0.74248  1.0000
  H   H1595     1.0  0.91019  0.23534  0.75047  1.0000
  H   H1596     1.0  0.72294  0.44187  0.85828  1.0000
  C   C906      1.0  0.50846  0.17520  0.92953  1.0000
  H   H1597     1.0  0.66565  0.41140  0.74503  1.0000
  C   C907      1.0  0.90720  0.13606  0.73871  1.0000
  H   H1598     1.0  0.97704  0.48584  0.75196  1.0000
  H   H1599     1.0  0.92730  0.44170  0.72358  1.0000
  H   H1600     1.0  0.98203  0.44952  0.74244  1.0000
  C   C908      1.0  0.88659  0.48182  0.86862  1.0000
  C   C909      1.0  0.91518  0.15878  0.84759  1.0000
  S   S221      1.0  0.87741  0.47896  0.91972  1.0000
  C   C910      1.0  0.95152  0.47073  0.95707  1.0000
  H   H1601     1.0  0.50942  0.15119  0.93543  1.0000
  H   H1602     1.0  0.77065  0.47563  0.83044  1.0000
  S   S222      1.0  0.89268  0.32823  0.72145  1.0000
  H   H1603     1.0  0.74107  0.40993  0.84038  1.0000
  H   H1604     1.0  0.58488  0.28846  0.92611  1.0000
  C   C911      1.0  0.76085  0.40196  0.87251  1.0000
  C   C912      1.0  0.62760  0.26194  0.91517  1.0000
  H   H1605     1.0  0.90682  0.47063  0.86732  1.0000
  H   H1606     1.0  0.98845  0.23329  0.74172  1.0000
  H   H1607     1.0  0.93004  0.19003  0.75035  1.0000
  H   H1608     1.0  0.90019  0.12012  0.75094  1.0000
  C   C913      1.0  0.64591  0.24187  0.90649  1.0000
  C   C914      1.0  0.90377  0.24396  0.73807  1.0000
  C   C915      1.0  0.96770  0.26472  0.72597  1.0000
  H   H1609     1.0  0.72029  0.29159  0.72556  1.0000
  H   H1610     1.0  0.99136  0.38627  0.95352  1.0000
  H   H1611     1.0  0.68159  0.31141  0.92122  1.0000
  H   H1612     1.0  0.98899  0.27885  0.82037  1.0000
  C   C916      1.0  0.65551  0.29002  0.92829  1.0000
  N   N48       1.0  0.77509  0.43835  0.86205  1.0000
  H   H1613     1.0  0.67116  0.04182  0.91667  1.0000
  H   H1614     1.0  0.49987  0.11757  0.75586  1.0000
  C   C917      1.0  0.96373  0.36045  0.73653  1.0000
  H   H1615     1.0  0.77674  0.38681  0.86935  1.0000
  C   C918      1.0  0.81636  0.46508  0.86706  1.0000
  H   H1616     1.0  0.88474  0.11832  0.72952  1.0000
  H   H1617     1.0  0.93687  0.01014  0.90267  1.0000
  H   H1618     1.0  0.66103  0.36398  0.95066  1.0000
  H   H1619     1.0  0.65232  0.22500  0.91590  1.0000
  H   H1620     1.0  0.99657  0.04262  0.84742  1.0000
  C   C919      1.0  0.67603  0.03266  0.90482  1.0000
  H   H1621     1.0  0.87972  0.16756  0.74569  1.0000
  H   H1622     1.0  0.78537  0.41024  0.84176  1.0000
  H   H1623     1.0  0.99496  0.46784  0.77592  1.0000
  H   H1624     1.0  0.60131  0.22785  0.94824  1.0000
  H   H1625     1.0  0.93574  0.14087  0.73445  1.0000
  H   H1626     1.0  0.97741  0.01266  0.82959  1.0000
  H   H1627     1.0  0.96001  0.20871  0.82200  1.0000
  H   H1628     1.0  0.65136  0.02789  0.86379  1.0000
  H   H1629     1.0  0.66600  0.27401  0.93637  1.0000
  H   H1630     1.0  0.65719  0.50200  0.93786  1.0000
  H   H1631     1.0  0.56966  0.34163  0.91044  1.0000
  H   H1632     1.0  0.64554  0.33963  0.90702  1.0000
  C   C920      1.0  0.99302  0.36008  0.95655  1.0000
  C   C921      1.0  0.62457  0.34341  0.91452  1.0000
  C   C922      1.0  0.52392  0.18797  0.91345  1.0000
  H   H1633     1.0  0.55017  0.49405  0.91915  1.0000
  H   H1634     1.0  0.97180  0.16838  0.85338  1.0000
  C   C923      1.0  0.60971  0.31578  0.93005  1.0000
  H   H1635     1.0  0.69873  0.38441  0.87450  1.0000
  H   H1636     1.0  0.84502  0.20789  0.76255  1.0000
  H   H1637     1.0  0.72223  0.32293  0.87909  1.0000
  H   H1638     1.0  0.59682  0.32751  0.93875  1.0000
  H   H1639     1.0  0.85088  0.25414  0.75644  1.0000
  C   C924      1.0  0.70635  0.00353  0.88875  1.0000
  C   C925      1.0  0.84544  0.45060  0.86477  1.0000
  C   C926      1.0  0.59750  0.48623  0.96504  1.0000
  C   C927      1.0  0.71717  0.37227  0.87101  1.0000
  C   C928      1.0  0.68940  0.00878  0.87423  1.0000
  H   H1640     1.0  0.63978  0.37318  0.91870  1.0000
  S   S223      1.0  0.73092  0.46253  0.95235  1.0000
  H   H1641     1.0  0.57078  0.48500  0.89137  1.0000
  H   H1642     1.0  0.76684  0.40875  0.88599  1.0000
  H   H1643     1.0  0.74758  0.28543  0.95729  1.0000
  H   H1644     1.0  0.70981  0.36177  0.85809  1.0000
  C   C929      1.0  0.78815  0.44766  0.81328  1.0000
  H   H1645     1.0  0.83869  0.42612  0.87351  1.0000
  C   C930      1.0  0.58974  0.49213  0.94640  1.0000
  C   C931      1.0  0.83977  0.22437  0.75247  1.0000
  C   C932      1.0  0.67240  0.34808  0.94373  1.0000
  C   C933      1.0  0.77186  0.42816  0.84387  1.0000
  C   C934      1.0  0.97990  0.45985  0.95890  1.0000
  H   H1646     1.0  0.51713  0.13558  0.73495  1.0000
  C   C935      1.0  0.94083  0.47328  0.72258  1.0000
  H   H1647     1.0  0.81896  0.48309  0.83367  1.0000
  C   C936      1.0  0.78864  0.46173  0.83087  1.0000
  H   H1648     1.0  0.60252  0.36054  0.89293  1.0000
  H   H1649     1.0  0.71572  0.49852  0.85495  1.0000
  H   H1650     1.0  0.84521  0.44184  0.85175  1.0000
  N   N49       1.0  0.63975  0.30946  0.93899  1.0000
  C   C937      1.0  0.76792  0.49927  0.86410  1.0000
  H   H1651     1.0  0.91602  0.17882  0.85700  1.0000
  C   C938      1.0  0.70629  0.33769  0.88265  1.0000
  H   H1652     1.0  0.75823  0.42663  0.80958  1.0000
  H   H1653     1.0  0.50530  0.26182  0.90862  1.0000
  H   H1654     1.0  0.60044  0.23978  0.92099  1.0000
  H   H1655     1.0  0.90088  0.12959  0.85341  1.0000
  H   H1656     1.0  0.61892  0.47620  0.96582  1.0000
  H   H1657     1.0  0.95299  0.14763  0.83332  1.0000
  H   H1658     1.0  0.89767  0.15882  0.83667  1.0000
  C   C939      1.0  0.58964  0.24537  0.95332  1.0000
  H   H1659     1.0  0.62635  0.40363  0.73127  1.0000
  H   H1660     1.0  0.93741  0.46812  0.94513  1.0000
  H   H1661     1.0  0.80663  0.43428  0.81274  1.0000
  H   H1662     1.0  0.58534  0.46651  0.93972  1.0000
  H   H1663     1.0  0.57723  0.30987  0.89755  1.0000
  H   H1664     1.0  0.82841  0.49304  0.86029  1.0000
  H   H1665     1.0  0.67285  0.26278  0.89994  1.0000
  H   H1666     1.0  0.67485  0.31732  0.88172  1.0000
  C   C940      1.0  0.50307  0.00815  0.96714  1.0000
  H   H1667     1.0  0.99038  0.34541  0.94469  1.0000
  H   H1668     1.0  0.52528  0.08008  0.74291  1.0000
  C   C941      1.0  0.59137  0.33843  0.90317  1.0000
  C   C942      1.0  0.70616  0.34816  0.95377  1.0000
  C   C943      1.0  0.66490  0.02466  0.87508  1.0000
  H   H1669     1.0  0.65052  0.42301  0.96019  1.0000
  S   S224      1.0  0.54983  0.04845  0.96685  1.0000
  H   H1670     1.0  0.70495  0.32021  0.95408  1.0000
  C   C944      1.0  0.98727  0.26013  0.74207  1.0000
  Fe  Fe113     1.0  0.86810  0.48781  0.94661  1.0000
  H   H1671     1.0  0.60885  0.29394  0.72228  1.0000
  H   H1672     1.0  0.58896  0.22803  0.72540  1.0000
  C   C945      1.0  0.85923  0.22414  0.73617  1.0000
  H   H1673     1.0  0.73981  0.44872  0.87927  1.0000
  H   H1674     1.0  0.80812  0.21114  0.75050  1.0000
  C   C946      1.0  0.63577  0.02497  0.96647  1.0000
  C   C947      1.0  0.90826  0.17406  0.74072  1.0000
  H   H1675     1.0  0.73377  0.36833  0.94742  1.0000
  H   H1676     1.0  0.72220  0.47511  0.91681  1.0000
  H   H1677     1.0  0.85414  0.33543  0.96413  1.0000
  H   H1678     1.0  0.53408  0.22906  0.89348  1.0000
  H   H1679     1.0  0.91423  0.27503  0.73905  1.0000
  C   C948      1.0  0.74974  0.45531  0.86595  1.0000
  C   C949      1.0  0.91663  0.19661  0.72371  1.0000
  H   H1680     1.0  0.72204  0.50193  0.87748  1.0000
  H   H1681     1.0  0.61147  0.30215  0.96282  1.0000
  C   C950      1.0  0.97683  0.20983  0.83344  1.0000
  H   H1682     1.0  0.56653  0.24380  0.94505  1.0000
  H   H1683     1.0  0.52754  0.49279  0.72509  1.0000
  S   S225      1.0  0.51254  0.35760  0.94489  1.0000
  H   H1684     1.0  0.67586  0.43297  0.72435  1.0000
  C   C951      1.0  0.98932  0.10684  0.85717  1.0000
  C   C952      1.0  0.94371  0.34964  0.72126  1.0000
  H   H1685     1.0  0.60669  0.00347  0.93607  1.0000
  C   C953      1.0  0.99041  0.10222  0.83995  1.0000
  H   H1686     1.0  0.97573  0.00527  0.87932  1.0000
  H   H1687     1.0  0.70604  0.00823  0.81383  1.0000
  C   C954      1.0  0.62244  0.28699  0.95510  1.0000
  C   C955      1.0  0.65579  0.40712  0.73182  1.0000
  C   C956      1.0  0.65559  0.37190  0.72527  1.0000
  H   H1688     1.0  0.93282  0.32766  0.96248  1.0000
  H   H1689     1.0  0.64460  0.28483  0.96288  1.0000
  C   C957      1.0  0.69976  0.01589  0.90402  1.0000
  H   H1690     1.0  0.59847  0.03411  0.72335  1.0000
  H   H1691     1.0  0.98746  0.44880  0.94831  1.0000
  H   H1692     1.0  0.63674  0.34776  0.73379  1.0000
  H   H1693     1.0  0.67600  0.31789  0.72728  1.0000
  H   H1694     1.0  0.94639  0.01196  0.86452  1.0000
  H   H1695     1.0  0.97332  0.22903  0.84194  1.0000
  C   C958      1.0  0.50585  0.23761  0.91445  1.0000
  C   C959      1.0  0.52226  0.21908  0.90592  1.0000
  H   H1696     1.0  0.54120  0.04271  0.73042  1.0000
  H   H1697     1.0  0.71297  0.01229  0.91534  1.0000
  C   C960      1.0  0.98450  0.49212  0.72503  1.0000
  H   H1698     1.0  0.90698  0.01747  0.88743  1.0000
  H   H1699     1.0  0.65833  0.03723  0.95654  1.0000
  H   H1700     1.0  0.88850  0.49143  0.88165  1.0000
  H   H1701     1.0  0.61814  0.50170  0.91434  1.0000
  H   H1702     1.0  0.54648  0.42954  0.96674  1.0000
  H   H1703     1.0  0.94093  0.19559  0.71749  1.0000
  H   H1704     1.0  0.61561  0.92727  0.18515  1.0000
  S   S226      1.0  0.52344  0.65102  0.00433  1.0000
  S   S227      1.0  0.54795  0.63684  0.05299  1.0000
  H   H1705     1.0  0.61291  0.51712  0.15769  1.0000
  Fe  Fe114     1.0  0.80811  0.82874  0.10145  1.0000
  S   S228      1.0  0.82015  0.82359  0.07471  1.0000
  S   S229      1.0  0.81317  0.88158  0.11282  1.0000
  Fe  Fe115     1.0  0.79467  0.74926  0.11105  1.0000
  S   S230      1.0  0.80575  0.73791  0.08486  1.0000
  S   S231      1.0  0.78305  0.71364  0.13497  1.0000
  Fe  Fe116     1.0  0.85529  0.79834  0.08499  1.0000
  S   S232      1.0  0.91419  0.81773  0.07379  1.0000
  Fe  Fe117     1.0  0.76925  0.76409  0.07686  1.0000
  S   S233      1.0  0.72997  0.74750  0.05407  1.0000
  S   S234      1.0  0.84669  0.80749  0.11161  1.0000
  S   S235      1.0  0.75455  0.77106  0.10312  1.0000
  Fe  Fe118     1.0  0.79962  0.53689  0.16483  1.0000
  S   S236      1.0  0.78764  0.54850  0.19081  1.0000
  S   S237      1.0  0.81183  0.57302  0.14097  1.0000
  C   C961      1.0  0.91864  0.94711  0.13923  1.0000
  Fe  Fe119     1.0  0.82710  0.52609  0.19936  1.0000
  H   H1706     1.0  0.87379  0.77185  0.13788  1.0000
  C   C962      1.0  0.96549  0.99448  0.04363  1.0000
  C   C963      1.0  0.89133  0.77344  0.14901  1.0000
  C   C964      1.0  0.91722  0.91072  0.13263  1.0000
  H   H1707     1.0  0.76776  0.92128  0.06505  1.0000
  H   H1708     1.0  0.97207  0.79795  0.15983  1.0000
  C   C965      1.0  0.66610  0.97566  0.19620  1.0000
  H   H1709     1.0  0.54847  0.93958  0.19266  1.0000
  H   H1710     1.0  0.89850  0.76067  0.11583  1.0000
  H   H1711     1.0  0.93973  0.98562  0.05178  1.0000
  H   H1712     1.0  0.66079  0.92928  0.18046  1.0000
  H   H1713     1.0  0.64102  0.97184  0.16405  1.0000
  H   H1714     1.0  0.92518  0.59398  0.19608  1.0000
  C   C966      1.0  0.79266  0.67560  0.13651  1.0000
  C   C967      1.0  0.78905  0.65723  0.15215  1.0000
  C   C968      1.0  0.79495  0.62575  0.15372  1.0000
  C   C969      1.0  0.80456  0.61255  0.13963  1.0000
  C   C970      1.0  0.80836  0.63105  0.12401  1.0000
  C   C971      1.0  0.80227  0.66242  0.12243  1.0000
  H   H1715     1.0  0.78133  0.66718  0.16308  1.0000
  H   H1716     1.0  0.79202  0.61168  0.16581  1.0000
  H   H1717     1.0  0.81571  0.62084  0.11306  1.0000
  H   H1718     1.0  0.80465  0.67612  0.11030  1.0000
  C   C972      1.0  0.59827  0.66910  0.05323  1.0000
  C   C973      1.0  0.61842  0.68888  0.03874  1.0000
  C   C974      1.0  0.65878  0.71259  0.03923  1.0000
  C   C975      1.0  0.67924  0.71749  0.05426  1.0000
  C   C976      1.0  0.65904  0.69823  0.06883  1.0000
  C   C977      1.0  0.61875  0.67385  0.06826  1.0000
  H   H1719     1.0  0.60298  0.68552  0.02712  1.0000
  H   H1720     1.0  0.67425  0.72725  0.02788  1.0000
  H   H1721     1.0  0.67449  0.70173  0.08047  1.0000
  H   H1722     1.0  0.60333  0.65864  0.07954  1.0000
  H   H1723     1.0  0.81507  0.84917  0.03588  1.0000
  C   C978      1.0  0.95620  0.84666  0.08531  1.0000
  C   C979      1.0  0.98901  0.79721  0.14910  1.0000
  C   C980      1.0  0.95420  0.85551  0.10191  1.0000
  H   H1724     1.0  0.99022  0.59333  0.97561  1.0000
  H   H1725     1.0  0.92660  0.84511  0.10788  1.0000
  H   H1726     1.0  0.95318  0.71804  0.15034  1.0000
  C   C981      1.0  0.84594  0.95677  0.07315  1.0000
  C   C982      1.0  0.83635  0.92402  0.08317  1.0000
  C   C983      1.0  0.82607  0.92240  0.09997  1.0000
  C   C984      1.0  0.82637  0.95406  0.10680  1.0000
  C   C985      1.0  0.70077  0.61110  0.12679  1.0000
  H   H1727     1.0  0.83697  0.90013  0.07790  1.0000
  H   H1728     1.0  0.81859  0.95306  0.11981  1.0000
  H   H1729     1.0  0.59504  0.51096  0.02694  1.0000
  C   C986      1.0  0.77770  0.87437  0.03544  1.0000
  C   C987      1.0  0.81768  0.87788  0.03508  1.0000
  H   H1730     1.0  0.51253  0.98674  0.99076  1.0000
  H   H1731     1.0  0.76171  0.85784  0.02442  1.0000
  H   H1732     1.0  0.78176  0.90357  0.03411  1.0000
  H   H1733     1.0  0.58733  0.51984  0.13060  1.0000
  H   H1734     1.0  0.83262  0.89231  0.02318  1.0000
  H   H1735     1.0  0.83555  0.89492  0.04567  1.0000
  H   H1736     1.0  0.90687  0.90587  0.11948  1.0000
  H   H1737     1.0  0.72245  0.89596  0.03829  1.0000
  C   C988      1.0  0.68205  0.56710  0.15975  1.0000
  H   H1738     1.0  0.60215  0.65239  0.99716  1.0000
  H   H1739     1.0  0.59158  0.55195  0.05785  1.0000
  H   H1740     1.0  0.88391  0.73857  0.08554  1.0000
  C   C989      1.0  0.68481  0.54307  0.17476  1.0000
  H   H1741     1.0  0.63803  0.82328  0.04491  1.0000
  H   H1742     1.0  0.60170  0.56227  0.00993  1.0000
  C   C990      1.0  0.69853  0.56660  0.19053  1.0000
  H   H1743     1.0  0.97310  0.54870  0.18300  1.0000
  C   C991      1.0  0.57705  0.56338  0.01571  1.0000
  C   C992      1.0  0.58130  0.99503  0.20349  1.0000
  H   H1744     1.0  0.71173  0.59164  0.15796  1.0000
  H   H1745     1.0  0.72491  0.55890  0.13783  1.0000
  C   C993      1.0  0.88986  0.87565  0.14330  1.0000
  H   H1746     1.0  0.99424  0.85393  0.06488  1.0000
  C   C994      1.0  0.70277  0.82332  0.10200  1.0000
  C   C995      1.0  0.69424  0.63383  0.11270  1.0000
  H   H1747     1.0  0.72349  0.60511  0.12254  1.0000
  H   H1748     1.0  0.93536  0.64969  0.15337  1.0000
  H   H1749     1.0  0.93959  0.71797  0.10389  1.0000
  H   H1750     1.0  0.68384  0.87853  0.05259  1.0000
  H   H1751     1.0  0.67278  0.83086  0.07330  1.0000
  H   H1752     1.0  0.85798  0.79055  0.16409  1.0000
  C   C996      1.0  0.95763  0.93214  0.05143  1.0000
  C   C997      1.0  0.69178  0.82143  0.03988  1.0000
  H   H1753     1.0  0.75599  0.82704  0.05351  1.0000
  H   H1754     1.0  0.66395  0.57941  0.16377  1.0000
  C   C998      1.0  0.93337  0.53139  0.16262  1.0000
  H   H1755     1.0  0.88919  0.86348  0.04969  1.0000
  C   C999      1.0  0.72560  0.84032  0.08577  1.0000
  H   H1756     1.0  0.89787  0.87988  0.15674  1.0000
  H   H1757     1.0  0.88494  0.66600  0.14508  1.0000
  H   H1758     1.0  0.64554  0.97964  0.20407  1.0000
  N   N50       1.0  0.71563  0.84786  0.05365  1.0000
  H   H1759     1.0  0.67781  0.57595  0.19419  1.0000
  C   C1000     1.0  0.86690  0.76849  0.16446  1.0000
  H   H1760     1.0  0.98895  0.99996  0.07306  1.0000
  H   H1761     1.0  0.58284  0.97427  0.97250  1.0000
  H   H1762     1.0  0.91147  0.52330  0.19708  1.0000
  H   H1763     1.0  0.93686  0.92781  0.06163  1.0000
  H   H1764     1.0  0.94583  0.91252  0.13314  1.0000
  H   H1765     1.0  0.92304  0.94751  0.15303  1.0000
  H   H1766     1.0  0.69955  0.83677  0.02749  1.0000
  H   H1767     1.0  0.88959  0.85711  0.02748  1.0000
  H   H1768     1.0  0.88896  0.94285  0.13757  1.0000
  C   C1001     1.0  0.92663  0.73657  0.10224  1.0000
  H   H1769     1.0  0.90494  0.97970  0.11297  1.0000
  H   H1770     1.0  0.55240  0.54788  0.00700  1.0000
  C   C1002     1.0  0.90601  0.73787  0.11833  1.0000
  H   H1771     1.0  0.70067  0.54901  0.20103  1.0000
  H   H1772     1.0  0.64222  0.58182  0.13612  1.0000
  N   N51       1.0  0.94802  0.98450  0.13110  1.0000
  H   H1773     1.0  0.62592  0.99666  0.17718  1.0000
  C   C1003     1.0  0.56202  0.95483  0.20390  1.0000
  C   C1004     1.0  0.83677  0.98713  0.09690  1.0000
  C   C1005     1.0  0.66309  0.57367  0.13122  1.0000
  H   H1774     1.0  0.89175  0.85059  0.13933  1.0000
  H   H1775     1.0  0.91361  0.92417  0.03253  1.0000
  H   H1776     1.0  0.67230  0.64152  0.11646  1.0000
  H   H1777     1.0  0.53102  0.52519  0.06524  1.0000
  H   H1778     1.0  0.77502  0.87223  0.06221  1.0000
  H   H1779     1.0  0.64463  0.55542  0.04167  1.0000
  C   C1006     1.0  0.64006  0.58040  0.04126  1.0000
  C   C1007     1.0  0.69849  0.82809  0.07031  1.0000
  H   H1780     1.0  0.85373  0.95790  0.06015  1.0000
  C   C1008     1.0  0.94094  0.71531  0.13752  1.0000
  C   C1009     1.0  0.64429  0.93396  0.19028  1.0000
  C   C1010     1.0  0.75626  0.85466  0.05201  1.0000
  C   C1011     1.0  0.90878  0.67304  0.13617  1.0000
  C   C1012     1.0  0.71397  0.88427  0.05131  1.0000
  C   C1013     1.0  0.98754  0.98827  0.13054  1.0000
  H   H1781     1.0  0.98802  0.96807  0.12153  1.0000
  C   C1014     1.0  0.90814  0.86990  0.03858  1.0000
  C   C1015     1.0  0.59555  0.62226  0.99724  1.0000
  H   H1782     1.0  0.72169  0.66064  0.10994  1.0000
  H   H1783     1.0  0.91399  0.72277  0.07604  1.0000
  H   H1784     1.0  0.69788  0.61688  0.05079  1.0000
  H   H1785     1.0  0.87590  0.69113  0.09027  1.0000
  H   H1786     1.0  0.71128  0.62963  0.13778  1.0000
  H   H1787     1.0  0.87783  0.71117  0.11951  1.0000
  H   H1788     1.0  0.69828  0.79769  0.03890  1.0000
  N   N52       1.0  0.56772  0.54387  0.03282  1.0000
  H   H1789     1.0  0.61147  0.62362  0.02290  1.0000
  C   C1016     1.0  0.90288  0.74201  0.14872  1.0000
  Fe  Fe120     1.0  0.50801  0.62892  0.03093  1.0000
  C   C1017     1.0  0.58616  0.60544  0.01508  1.0000
  C   C1018     1.0  0.89828  0.72129  0.08766  1.0000
  C   C1019     1.0  0.98048  0.61902  0.20865  1.0000
  H   H1790     1.0  0.66104  0.59643  0.06679  1.0000
  H   H1791     1.0  0.89672  0.66687  0.12333  1.0000
  H   H1792     1.0  0.91697  0.80236  0.14930  1.0000
  H   H1793     1.0  0.63654  0.77980  0.05176  1.0000
  C   C1020     1.0  0.92441  0.64601  0.14031  1.0000
  H   H1794     1.0  0.69536  0.51296  0.14660  1.0000
  H   H1795     1.0  0.53136  0.56609  0.04058  1.0000
  H   H1796     1.0  0.75861  0.97670  0.06668  1.0000
  H   H1797     1.0  0.59484  0.76826  0.02756  1.0000
  H   H1798     1.0  0.74643  0.82982  0.08471  1.0000
  C   C1021     1.0  0.59748  0.56776  0.04561  1.0000
  H   H1799     1.0  0.87529  0.71440  0.14855  1.0000
  H   H1800     1.0  0.68472  0.61726  0.10107  1.0000
  H   H1801     1.0  0.70373  0.98277  0.16400  1.0000
  H   H1802     1.0  0.98262  0.94237  0.08447  1.0000
  H   H1803     1.0  0.72364  0.90952  0.07596  1.0000
  H   H1804     1.0  0.64849  0.59432  0.02867  1.0000
  C   C1022     1.0  0.93334  0.91289  0.03567  1.0000
  H   H1805     1.0  0.55272  0.91173  0.97065  1.0000
  H   H1806     1.0  0.60910  0.51318  0.97188  1.0000
  C   C1023     1.0  0.62661  0.78365  0.02554  1.0000
  H   H1807     1.0  0.68598  0.79171  0.10158  1.0000
  H   H1808     1.0  0.62113  0.62158  0.99236  1.0000
  H   H1809     1.0  0.63514  0.76278  0.02158  1.0000
  C   C1024     1.0  0.73815  0.91654  0.06355  1.0000
  H   H1810     1.0  0.68781  0.79687  0.06957  1.0000
  H   H1811     1.0  0.75764  0.96385  0.04528  1.0000
  C   C1025     1.0  0.74189  0.95445  0.05742  1.0000
  H   H1812     1.0  0.66547  0.63530  0.05330  1.0000
  H   H1813     1.0  0.85958  0.86951  0.14177  1.0000
  N   N53       1.0  0.66674  0.54644  0.14356  1.0000
  H   H1814     1.0  0.65087  0.55994  0.11916  1.0000
  H   H1815     1.0  0.72303  0.83127  0.11275  1.0000
  C   C1026     1.0  0.52908  0.53812  0.03827  1.0000
  C   C1027     1.0  0.66766  0.60891  0.05385  1.0000
  C   C1028     1.0  0.64715  0.80244  0.04173  1.0000
  H   H1816     1.0  0.65650  0.51749  0.17766  1.0000
  H   H1817     1.0  0.90084  0.61603  0.13915  1.0000
  C   C1029     1.0  0.99246  0.86066  0.07772  1.0000
  H   H1818     1.0  0.84036  0.74005  0.16470  1.0000
  H   H1819     1.0  0.68278  0.83451  0.10407  1.0000
  H   H1820     1.0  0.95204  0.91746  0.02470  1.0000
  H   H1821     1.0  0.92449  0.55268  0.16545  1.0000
  H   H1822     1.0  0.90837  0.50547  0.15756  1.0000
  H   H1823     1.0  0.95635  0.80553  0.12892  1.0000
  H   H1824     1.0  0.68906  0.97779  0.20492  1.0000
  H   H1825     1.0  0.98644  0.88399  0.12382  1.0000
  H   H1826     1.0  0.57050  0.60616  0.98889  1.0000
  H   H1827     1.0  0.99010  0.51964  0.20351  1.0000
  S   S238      1.0  0.84227  0.51873  0.17332  1.0000
  H   H1828     1.0  0.94796  0.65116  0.13151  1.0000
  N   N54       1.0  0.92853  0.74475  0.13439  1.0000
  H   H1829     1.0  0.88362  0.77153  0.17610  1.0000
  H   H1830     1.0  0.91626  0.74154  0.16099  1.0000
  H   H1831     1.0  0.63365  0.80549  0.01534  1.0000
  H   H1832     1.0  0.56113  0.60757  0.01954  1.0000
  H   H1833     1.0  0.59538  0.59359  0.04830  1.0000
  H   H1834     1.0  0.93570  0.96362  0.10588  1.0000
  H   H1835     1.0  0.97130  0.91516  0.05561  1.0000
  H   H1836     1.0  0.74265  0.87150  0.08702  1.0000
  H   H1837     1.0  0.61861  0.87607  0.20058  1.0000
  H   H1838     1.0  0.72755  0.59198  0.18847  1.0000
  H   H1839     1.0  0.70594  0.53357  0.17214  1.0000
  C   C1030     1.0  0.93551  0.98630  0.11335  1.0000
  H   H1840     1.0  0.88876  0.99502  0.14660  1.0000
  C   C1031     1.0  0.62744  0.51189  0.14708  1.0000
  H   H1841     1.0  0.92644  0.85649  0.04053  1.0000
  H   H1842     1.0  0.71297  0.95194  0.05594  1.0000
  C   C1032     1.0  0.84621  0.98841  0.08000  1.0000
  H   H1843     1.0  0.94987  0.76575  0.09858  1.0000
  C   C1033     1.0  0.96409  0.78361  0.13303  1.0000
  H   H1844     1.0  0.93145  0.99978  0.08018  1.0000
  H   H1845     1.0  0.96499  0.72043  0.12899  1.0000
  H   H1846     1.0  0.95625  0.54408  0.15286  1.0000
  C   C1034     1.0  0.72014  0.50964  0.11528  1.0000
  H   H1847     1.0  0.96713  0.53948  0.21522  1.0000
  H   H1848     1.0  0.74766  0.53715  0.11403  1.0000
  C   C1035     1.0  0.96711  0.51236  0.21300  1.0000
  C   C1036     1.0  0.94912  0.52147  0.17836  1.0000
  H   H1849     1.0  0.95419  0.98629  0.03072  1.0000
  C   C1037     1.0  0.69488  0.53448  0.13769  1.0000
  C   C1038     1.0  0.68723  0.51645  0.12031  1.0000
  H   H1850     1.0  0.98378  0.95567  0.15399  1.0000
  C   C1039     1.0  0.93998  0.59626  0.20780  1.0000
  H   H1851     1.0  0.99665  0.63417  0.19752  1.0000
  N   N55       1.0  0.98697  0.97408  0.04941  1.0000
  H   H1852     1.0  0.68495  0.53509  0.11041  1.0000
  C   C1040     1.0  0.63710  0.90565  0.20483  1.0000
  C   C1041     1.0  0.98820  0.87746  0.11097  1.0000
  H   H1853     1.0  0.61328  0.99239  0.13974  1.0000
  H   H1854     1.0  0.66479  0.90863  0.20950  1.0000
  C   C1042     1.0  0.56689  0.50631  0.03171  1.0000
  C   C1043     1.0  0.51140  0.51321  0.05442  1.0000
  H   H1855     1.0  0.50745  0.52577  0.02808  1.0000
  H   H1856     1.0  0.98352  0.78429  0.12298  1.0000
  H   H1857     1.0  0.72970  0.99298  0.18297  1.0000
  C   C1044     1.0  0.65130  0.99939  0.17032  1.0000
  H   H1858     1.0  0.62200  0.91040  0.21528  1.0000
  S   S239      1.0  0.91013  0.50395  0.96835  1.0000
  H   H1859     1.0  0.96132  0.50328  0.17479  1.0000
  Fe  Fe121     1.0  0.73808  0.79574  0.32879  1.0000
  S   S240      1.0  0.72732  0.80537  0.35528  1.0000
  S   S241      1.0  0.69806  0.78268  0.30644  1.0000
  Fe  Fe122     1.0  0.81996  0.81064  0.33654  1.0000
  S   S242      1.0  0.81511  0.82119  0.36354  1.0000
  S   S243      1.0  0.87426  0.81864  0.32371  1.0000
  Fe  Fe123     1.0  0.75515  0.77000  0.36250  1.0000
  S   S244      1.0  0.73532  0.72862  0.38514  1.0000
  Fe  Fe124     1.0  0.78799  0.85535  0.35396  1.0000
  S   S245      1.0  0.80606  0.91293  0.36505  1.0000
  S   S246      1.0  0.76196  0.75701  0.33599  1.0000
  S   S247      1.0  0.79660  0.84814  0.32701  1.0000
  C   C1045     1.0  0.53567  0.65218  0.42355  1.0000
  H   H1860     1.0  0.54500  0.61972  0.27972  1.0000
  S   S248      1.0  0.62485  0.54846  0.38585  1.0000
  C   C1046     1.0  0.57771  0.95423  0.23320  1.0000
  Fe  Fe125     1.0  0.53298  0.82020  0.27668  1.0000
  S   S249      1.0  0.54652  0.80911  0.25092  1.0000
  S   S250      1.0  0.57168  0.83426  0.29955  1.0000
  H   H1861     1.0  0.65814  0.80197  0.33137  1.0000
  H   H1862     1.0  0.56613  0.74018  0.27977  1.0000
  C   C1047     1.0  0.80006  0.54784  0.43109  1.0000
  H   H1863     1.0  0.58580  0.75915  0.24959  1.0000
  H   H1864     1.0  0.92237  0.56518  0.24845  1.0000
  H   H1865     1.0  0.56576  0.61302  0.40707  1.0000
  H   H1866     1.0  0.52652  0.65764  0.45000  1.0000
  C   C1048     1.0  0.91755  0.83660  0.33528  1.0000
  C   C1049     1.0  0.95309  0.85421  0.32675  1.0000
  H   H1867     1.0  0.52558  0.70031  0.27136  1.0000
  C   C1050     1.0  0.91543  0.92058  0.33239  1.0000
  C   C1051     1.0  0.58180  0.70979  0.26337  1.0000
  C   C1052     1.0  0.91718  0.83333  0.35275  1.0000
  H   H1868     1.0  0.95356  0.85683  0.31323  1.0000
  H   H1869     1.0  0.78104  0.53614  0.44230  1.0000
  H   H1870     1.0  0.72227  0.98234  0.34580  1.0000
  H   H1871     1.0  0.88996  0.81939  0.35943  1.0000
  C   C1053     1.0  0.83210  0.95583  0.35308  1.0000
  C   C1054     1.0  0.83314  0.95603  0.33557  1.0000
  S   S251      1.0  0.86781  0.54696  0.22177  1.0000
  H   H1872     1.0  0.81847  0.92950  0.32912  1.0000
  C   C1055     1.0  0.70824  0.67812  0.38438  1.0000
  C   C1056     1.0  0.70485  0.65620  0.39899  1.0000
  C   C1057     1.0  0.68014  0.61638  0.39954  1.0000
  C   C1058     1.0  0.65854  0.59803  0.38545  1.0000
  C   C1059     1.0  0.66258  0.61980  0.37072  1.0000
  C   C1060     1.0  0.68743  0.65963  0.37015  1.0000
  H   H1873     1.0  0.72106  0.67016  0.41002  1.0000
  H   H1874     1.0  0.67746  0.59997  0.41092  1.0000
  H   H1875     1.0  0.64607  0.60580  0.35975  1.0000
  H   H1876     1.0  0.68968  0.67610  0.35884  1.0000
  C   C1061     1.0  0.66296  0.79708  0.30488  1.0000
  C   C1062     1.0  0.64921  0.80021  0.28897  1.0000
  C   C1063     1.0  0.62114  0.81148  0.28718  1.0000
  C   C1064     1.0  0.60622  0.81916  0.30131  1.0000
  C   C1065     1.0  0.61970  0.81570  0.31724  1.0000
  C   C1066     1.0  0.64799  0.80467  0.31905  1.0000
  H   H1877     1.0  0.66067  0.79434  0.27796  1.0000
  H   H1878     1.0  0.61121  0.81440  0.27484  1.0000
  H   H1879     1.0  0.60798  0.82135  0.32823  1.0000
  H   H1880     1.0  0.61446  0.62934  0.40220  1.0000
  H   H1881     1.0  0.53323  0.76263  0.32194  1.0000
  C   C1067     1.0  0.85292  0.99076  0.32637  1.0000
  H   H1882     1.0  0.96339  0.73593  0.32914  1.0000
  H   H1883     1.0  0.94044  0.86043  0.41643  1.0000
  H   H1884     1.0  0.58876  0.62268  0.43895  1.0000
  H   H1885     1.0  0.94314  0.98162  0.32944  1.0000
  C   C1068     1.0  0.93850  0.99290  0.29529  1.0000
  H   H1886     1.0  0.91719  0.55533  0.41437  1.0000
  C   C1069     1.0  0.51620  0.64703  0.29219  1.0000
  H   H1887     1.0  0.57664  0.93877  0.24468  1.0000
  H   H1888     1.0  0.58906  0.67653  0.43694  1.0000
  H   H1889     1.0  0.93573  0.93159  0.38683  1.0000
  H   H1890     1.0  0.78391  0.89111  0.29831  1.0000
  H   H1891     1.0  0.86675  0.52311  0.40983  1.0000
  C   C1070     1.0  0.59567  0.63260  0.41140  1.0000
  C   C1071     1.0  0.70543  0.73500  0.43179  1.0000
  H   H1892     1.0  0.73781  0.86460  0.28798  1.0000
  H   H1893     1.0  0.59789  0.56566  0.41772  1.0000
  H   H1894     1.0  0.62675  0.65138  0.32757  1.0000
  C   C1072     1.0  0.89423  0.52503  0.41414  1.0000
  H   H1895     1.0  0.85235  0.85006  0.29295  1.0000
  H   H1896     1.0  0.77712  0.94896  0.29725  1.0000
  H   H1897     1.0  0.57345  0.67395  0.35981  1.0000
  H   H1898     1.0  0.90937  0.86902  0.40258  1.0000
  H   H1899     1.0  0.65199  0.68678  0.43998  1.0000
  H   H1900     1.0  0.92629  0.89475  0.42185  1.0000
  C   C1073     1.0  0.92315  0.95666  0.32195  1.0000
  H   H1901     1.0  0.95160  0.72178  0.30761  1.0000
  C   C1074     1.0  0.89731  0.91857  0.34935  1.0000
  C   C1075     1.0  0.91578  0.74024  0.31909  1.0000
  H   H1902     1.0  0.80049  0.57442  0.42672  1.0000
  C   C1076     1.0  0.59198  0.68165  0.39406  1.0000
  H   H1903     1.0  0.63234  0.65263  0.30517  1.0000
  H   H1904     1.0  0.81869  0.86309  0.28413  1.0000
  C   C1077     1.0  0.54314  0.70628  0.30742  1.0000
  H   H1905     1.0  0.86671  0.93142  0.28574  1.0000
  H   H1906     1.0  0.98209  0.80458  0.31776  1.0000
  N   N56       1.0  0.55033  0.68677  0.29319  1.0000
  C   C1078     1.0  0.61604  0.68143  0.37894  1.0000
  H   H1907     1.0  0.66187  0.95711  0.32501  1.0000
  H   H1908     1.0  0.85078  0.99075  0.37481  1.0000
  H   H1909     1.0  0.58845  0.92668  0.46410  1.0000
  H   H1910     1.0  0.61181  0.71632  0.29761  1.0000
  H   H1911     1.0  0.61149  0.65236  0.37720  1.0000
  H   H1912     1.0  0.85810  0.90773  0.30593  1.0000
  C   C1079     1.0  0.75077  0.92062  0.29635  1.0000
  C   C1080     1.0  0.74805  0.96817  0.32478  1.0000
  H   H1913     1.0  0.60572  0.94316  0.30692  1.0000
  C   C1081     1.0  0.93854  0.58017  0.23729  1.0000
  C   C1082     1.0  0.63123  0.94285  0.30169  1.0000
  C   C1083     1.0  0.87143  0.91081  0.29351  1.0000
  H   H1914     1.0  0.59518  0.67340  0.28690  1.0000
  H   H1915     1.0  0.76230  0.98347  0.31288  1.0000
  C   C1084     1.0  0.55444  0.70956  0.27711  1.0000
  H   H1916     1.0  0.51662  0.63292  0.26603  1.0000
  H   H1917     1.0  0.78797  0.52714  0.42090  1.0000
  C   C1085     1.0  0.98758  0.86462  0.35314  1.0000
  H   H1918     1.0  0.91724  0.76021  0.32871  1.0000
  H   H1919     1.0  0.91850  0.90021  0.30025  1.0000
  H   H1920     1.0  0.52848  0.62201  0.42530  1.0000
  C   C1086     1.0  0.95526  0.74324  0.31683  1.0000
  C   C1087     1.0  0.96215  0.94551  0.39476  1.0000
  C   C1088     1.0  0.98532  0.78358  0.31028  1.0000
  C   C1089     1.0  0.58740  0.68643  0.29705  1.0000
  H   H1921     1.0  0.77757  0.90430  0.27723  1.0000
  C   C1090     1.0  0.76323  0.89342  0.28959  1.0000
  H   H1922     1.0  0.61225  0.72578  0.26768  1.0000
  C   C1091     1.0  0.50015  0.96597  0.45363  1.0000
  N   N57       1.0  0.71472  0.92906  0.32134  1.0000
  C   C1092     1.0  0.69361  0.90811  0.33720  1.0000
  C   C1093     1.0  0.68695  0.93119  0.30879  1.0000
  C   C1094     1.0  0.73100  0.90619  0.31375  1.0000
  H   H1923     1.0  0.63366  0.62930  0.43055  1.0000
  H   H1924     1.0  0.65465  0.72868  0.40668  1.0000
  C   C1095     1.0  0.71814  0.90254  0.35106  1.0000
  H   H1925     1.0  0.86147  0.87371  0.27251  1.0000
  C   C1096     1.0  0.65257  0.93445  0.31576  1.0000
  C   C1097     1.0  0.66131  0.71202  0.43150  1.0000
  H   H1926     1.0  0.62085  0.92043  0.29216  1.0000
  C   C1098     1.0  0.69376  0.88228  0.36660  1.0000
  H   H1927     1.0  0.66963  0.87938  0.33412  1.0000
  H   H1928     1.0  0.67948  0.92247  0.34312  1.0000
  H   H1929     1.0  0.85308  0.99075  0.31283  1.0000
  H   H1930     1.0  0.67290  0.90491  0.30123  1.0000
  H   H1931     1.0  0.70781  0.87606  0.31249  1.0000
  H   H1932     1.0  0.75304  0.90521  0.32205  1.0000
  H   H1933     1.0  0.59084  0.56294  0.44007  1.0000
  C   C1099     1.0  0.84102  0.55625  0.43514  1.0000
  C   C1100     1.0  0.58001  0.67936  0.42404  1.0000
  H   H1934     1.0  0.58425  0.67896  0.32461  1.0000
  H   H1935     1.0  0.72997  0.88457  0.34675  1.0000
  H   H1936     1.0  0.74230  0.93036  0.35496  1.0000
  H   H1937     1.0  0.65082  0.69659  0.31631  1.0000
  C   C1101     1.0  0.58811  0.66537  0.31353  1.0000
  H   H1938     1.0  0.90941  0.52019  0.38869  1.0000
  C   C1102     1.0  0.57917  0.72959  0.24720  1.0000
  H   H1939     1.0  0.52321  0.65543  0.41153  1.0000
  H   H1940     1.0  0.73109  0.92278  0.28699  1.0000
  H   H1941     1.0  0.60909  0.72324  0.36354  1.0000
  C   C1103     1.0  0.95204  0.84689  0.36162  1.0000
  C   C1104     1.0  0.62689  0.66662  0.31571  1.0000
  H   H1942     1.0  0.95134  0.84317  0.37510  1.0000
  H   H1943     1.0  0.66957  0.85372  0.36344  1.0000
  H   H1944     1.0  0.71208  0.87841  0.37619  1.0000
  H   H1945     1.0  0.68204  0.89946  0.37201  1.0000
  H   H1946     1.0  0.94245  0.91991  0.33465  1.0000
  H   H1947     1.0  0.97441  0.93998  0.36366  1.0000
  C   C1105     1.0  0.50598  0.73548  0.32003  1.0000
  C   C1106     1.0  0.91877  0.57671  0.22214  1.0000
  H   H1948     1.0  0.97858  0.94003  0.31137  1.0000
  N   N58       1.0  0.93908  0.96007  0.30456  1.0000
  H   H1949     1.0  0.56148  0.66051  0.39122  1.0000
  H   H1950     1.0  0.51469  0.96081  0.44355  1.0000
  C   C1107     1.0  0.97907  0.60288  0.23814  1.0000
  H   H1951     1.0  0.71791  0.71754  0.42747  1.0000
  H   H1952     1.0  0.71557  0.74388  0.44475  1.0000
  H   H1953     1.0  0.89429  0.71080  0.32332  1.0000
  H   H1954     1.0  0.91336  0.58231  0.43704  1.0000
  H   H1955     1.0  0.52305  0.94589  0.27335  1.0000
  H   H1956     1.0  0.90560  0.74690  0.30711  1.0000
  H   H1957     1.0  0.90877  0.98883  0.29530  1.0000
  H   H1958     1.0  0.91245  0.94614  0.35572  1.0000
  C   C1108     1.0  0.60428  0.69381  0.36266  1.0000
  N   N59       1.0  0.60354  0.67322  0.41110  1.0000
  H   H1959     1.0  0.64735  0.70121  0.38062  1.0000
  C   C1109     1.0  0.64618  0.70097  0.41339  1.0000
  Fe  Fe126     1.0  0.51981  0.84417  0.24156  1.0000
  H   H1960     1.0  0.70289  0.95525  0.29959  1.0000
  H   H1961     1.0  0.71624  0.76097  0.42354  1.0000
  H   H1962     1.0  0.66363  0.69001  0.40748  1.0000
  H   H1963     1.0  0.89590  0.95762  0.32141  1.0000
  H   H1964     1.0  0.62229  0.69362  0.35222  1.0000
  C   C1110     1.0  0.51551  0.66074  0.43754  1.0000
  H   H1965     1.0  0.98884  0.95332  0.28054  1.0000
  S   S252      1.0  0.63629  0.51963  0.43407  1.0000
  H   H1966     1.0  0.77081  0.96577  0.33197  1.0000
  C   C1111     1.0  0.51825  0.62157  0.27867  1.0000
  H   H1967     1.0  0.56978  0.73385  0.30993  1.0000
  H   H1968     1.0  0.92588  0.92823  0.28182  1.0000
  H   H1969     1.0  0.55312  0.55907  0.42627  1.0000
  H   H1970     1.0  0.63144  0.90695  0.32198  1.0000
  H   H1971     1.0  0.89497  0.89453  0.32589  1.0000
  S   S253      1.0  0.51085  0.85900  0.26733  1.0000
  H   H1972     1.0  0.56522  0.63497  0.31355  1.0000
  C   C1112     1.0  0.73864  0.99554  0.33408  1.0000
  C   C1113     1.0  0.84982  0.87213  0.28524  1.0000
  H   H1973     1.0  0.86668  0.91054  0.34757  1.0000
  H   H1974     1.0  0.58513  0.52151  0.22006  1.0000
  H   H1975     1.0  0.59367  0.71006  0.39390  1.0000
  H   H1976     1.0  0.53635  0.68868  0.31920  1.0000
  H   H1977     1.0  0.97561  0.78643  0.29748  1.0000
  H   H1978     1.0  0.94581  0.99363  0.28184  1.0000
  C   C1114     1.0  0.98801  0.86851  0.33566  1.0000
  Fe  Fe127     1.0  0.61408  0.50645  0.40770  1.0000
  H   H1979     1.0  0.89813  0.89618  0.35750  1.0000
  H   H1980     1.0  0.65048  0.73022  0.43665  1.0000
  H   H1981     1.0  0.58554  0.70925  0.42289  1.0000
  H   H1982     1.0  0.51048  0.63169  0.30456  1.0000
  H   H1983     1.0  0.54984  0.71351  0.24174  1.0000
  C   C1115     1.0  0.91517  0.92427  0.29491  1.0000
  H   H1984     1.0  0.51428  0.73357  0.29376  1.0000
  H   H1985     1.0  0.57528  0.68069  0.26033  1.0000
  H   H1986     1.0  0.93383  0.50737  0.40460  1.0000
  C   C1116     1.0  0.50954  0.71498  0.30499  1.0000
  C   C1117     1.0  0.85161  0.99058  0.36128  1.0000
  H   H1987     1.0  0.52020  0.69017  0.43595  1.0000
  H   H1988     1.0  0.60029  0.73088  0.23791  1.0000
  H   H1989     1.0  0.49898  0.71716  0.33157  1.0000
  H   H1990     1.0  0.65039  0.97107  0.29555  1.0000
  H   H1991     1.0  0.85775  0.56551  0.42330  1.0000
  C   C1118     1.0  0.97953  0.96632  0.30611  1.0000
  C   C1119     1.0  0.58492  0.57350  0.42800  1.0000
  C   C1120     1.0  0.59742  0.99439  0.23272  1.0000
  C   C1121     1.0  0.60220  0.61675  0.42829  1.0000
  C   C1122     1.0  0.93423  0.88271  0.41130  1.0000
  H   H1992     1.0  0.50272  0.95794  0.24561  1.0000
  H   H1993     1.0  0.82654  0.51687  0.45586  1.0000
  C   C1123     1.0  0.98933  0.50899  0.45326  1.0000
  C   C1124     1.0  0.90599  0.50575  0.40112  1.0000
  H   H1994     1.0  0.95385  0.95646  0.40556  1.0000
  H   H1995     1.0  0.99389  0.60535  0.24987  1.0000
  C   C1125     1.0  0.56034  0.93427  0.21873  1.0000
  S   S254      1.0  0.53771  0.88391  0.21839  1.0000
  C   C1126     1.0  0.84126  0.52111  0.44356  1.0000
  N   N60       1.0  0.88014  0.52323  0.44586  1.0000
  H   H1996     1.0  0.96186  0.55908  0.44051  1.0000
  H   H1997     1.0  0.85370  0.58048  0.44378  1.0000
  H   H1998     1.0  0.92568  0.98708  0.38861  1.0000
  C   C1127     1.0  0.88835  0.50489  0.43151  1.0000
  H   H1999     1.0  0.96836  0.99739  0.36600  1.0000
  C   C1128     1.0  0.91158  0.56406  0.44803  1.0000
  H   H2000     1.0  0.98193  0.62824  0.43921  1.0000
  H   H2001     1.0  0.99660  0.98892  0.31523  1.0000
  H   H2002     1.0  0.97678  0.89970  0.39213  1.0000
  C   C1129     1.0  0.96983  0.91382  0.40207  1.0000
  N   N61       1.0  0.99473  0.97737  0.38477  1.0000
  C   C1130     1.0  0.95308  0.57099  0.45078  1.0000
  C   C1131     1.0  0.98219  0.61366  0.45120  1.0000
  H   H2003     1.0  0.99406  0.92576  0.41113  1.0000
  H   H2004     1.0  0.90445  0.57618  0.45888  1.0000
  H   H2005     1.0  0.95536  0.55819  0.46293  1.0000
  H   H2006     1.0  0.97560  0.62687  0.46172  1.0000
  H   H2007     1.0  0.64045  0.95311  0.46644  1.0000
  Fe  Fe128     1.0  0.68673  0.53551  0.66189  1.0000
  S   S255      1.0  0.71063  0.54714  0.68811  1.0000
  S   S256      1.0  0.71135  0.57174  0.63800  1.0000
  H   H2008     1.0  0.90401  0.59434  0.67509  1.0000
  C   C1132     1.0  0.60560  0.62672  0.71018  1.0000
  H   H2009     1.0  0.87522  0.51540  0.47282  1.0000
  Fe  Fe129     1.0  0.51613  0.85320  0.52759  1.0000
  H   H2010     1.0  0.76654  0.53374  0.65342  1.0000
  Fe  Fe130     1.0  0.91070  0.74923  0.60761  1.0000
  S   S257      1.0  0.89202  0.74388  0.58063  1.0000
  S   S258      1.0  0.88472  0.70577  0.62920  1.0000
  C   C1133     1.0  0.50378  0.59243  0.52091  1.0000
  S   S259      1.0  0.96664  0.82889  0.57422  1.0000
  Fe  Fe131     1.0  0.90507  0.80479  0.58255  1.0000
  S   S260      1.0  0.87178  0.82986  0.56895  1.0000
  Fe  Fe132     1.0  0.95533  0.76848  0.57459  1.0000
  C   C1134     1.0  0.51948  0.65809  0.49501  1.0000
  S   S261      1.0  0.91947  0.80838  0.60991  1.0000
  H   H2011     1.0  0.99635  0.99595  0.60473  1.0000
  H   H2012     1.0  0.78923  0.51857  0.61912  1.0000
  S   S262      1.0  0.53123  0.84713  0.50130  1.0000
  S   S263      1.0  0.55732  0.87355  0.54987  1.0000
  C   C1135     1.0  0.84559  0.52284  0.66684  1.0000
  H   H2013     1.0  0.94066  0.00198  0.59510  1.0000
  Fe  Fe133     1.0  0.80595  0.97647  0.59475  1.0000
  H   H2014     1.0  0.94135  0.91920  0.63718  1.0000
  S   S264      1.0  0.79910  0.91948  0.60400  1.0000
  H   H2015     1.0  0.51361  0.99966  0.53777  1.0000
  N   N62       1.0  0.51026  0.59106  0.50242  1.0000
  S   S265      1.0  0.50774  0.91060  0.47115  1.0000
  C   C1136     1.0  0.60587  0.91119  0.54976  1.0000
  C   C1137     1.0  0.62522  0.92966  0.53491  1.0000
  C   C1138     1.0  0.66397  0.95929  0.53540  1.0000
  C   C1139     1.0  0.68375  0.97061  0.55070  1.0000
  C   C1140     1.0  0.66441  0.95211  0.56554  1.0000
  C   C1141     1.0  0.62570  0.92249  0.56505  1.0000
  H   H2016     1.0  0.61034  0.92082  0.52310  1.0000
  H   H2017     1.0  0.67913  0.96092  0.57740  1.0000
  H   H2018     1.0  0.61090  0.90843  0.57661  1.0000
  C   C1142     1.0  0.85022  0.85332  0.57889  1.0000
  C   C1143     1.0  0.84128  0.87765  0.56924  1.0000
  C   C1144     1.0  0.82647  0.89875  0.57681  1.0000
  C   C1145     1.0  0.81914  0.89468  0.59404  1.0000
  C   C1146     1.0  0.82668  0.86925  0.60359  1.0000
  C   C1147     1.0  0.84243  0.84886  0.59609  1.0000
  H   H2019     1.0  0.84689  0.88101  0.55590  1.0000
  H   H2020     1.0  0.82056  0.91801  0.56931  1.0000
  H   H2021     1.0  0.82067  0.86557  0.61690  1.0000
  H   H2022     1.0  0.84869  0.82985  0.60363  1.0000
  C   C1148     1.0  0.93843  0.96126  0.57655  1.0000
  C   C1149     1.0  0.92496  0.59117  0.55260  1.0000
  C   C1150     1.0  0.75870  0.61095  0.63601  1.0000
  C   C1151     1.0  0.77204  0.62861  0.62016  1.0000
  C   C1152     1.0  0.81014  0.65886  0.61796  1.0000
  C   C1153     1.0  0.83524  0.67149  0.63162  1.0000
  C   C1154     1.0  0.82152  0.65456  0.64753  1.0000
  C   C1155     1.0  0.78348  0.62432  0.64974  1.0000
  H   H2023     1.0  0.75278  0.61868  0.60953  1.0000
  H   H2024     1.0  0.82016  0.67211  0.60570  1.0000
  H   H2025     1.0  0.84034  0.66510  0.65824  1.0000
  H   H2026     1.0  0.77323  0.61145  0.66204  1.0000
  H   H2027     1.0  0.56105  0.69826  0.47669  1.0000
  S   S266      1.0  0.97925  0.75247  0.55228  1.0000
  C   C1156     1.0  0.56867  0.99007  0.50656  1.0000
  H   H2028     1.0  0.88452  0.63704  0.64759  1.0000
  H   H2029     1.0  0.95684  0.60459  0.55133  1.0000
  H   H2030     1.0  0.95715  0.88437  0.63749  1.0000
  H   H2031     1.0  0.62653  0.59600  0.69581  1.0000
  N   N63       1.0  0.84695  0.56090  0.66422  1.0000
  C   C1157     1.0  0.56693  0.57831  0.50853  1.0000
  H   H2032     1.0  0.50756  0.57342  0.55490  1.0000
  S   S267      1.0  0.97320  0.76986  0.60140  1.0000
  H   H2033     1.0  0.53627  0.71682  0.48854  1.0000
  C   C1158     1.0  0.72496  0.78834  0.58504  1.0000
  H   H2034     1.0  0.98426  0.95864  0.55184  1.0000
  H   H2035     1.0  0.99647  0.51372  0.49567  1.0000
  H   H2036     1.0  0.87840  0.64040  0.66976  1.0000
  C   C1159     1.0  0.53693  0.63123  0.49596  1.0000
  C   C1160     1.0  0.97526  0.92755  0.57628  1.0000
  H   H2037     1.0  0.82792  0.58747  0.64514  1.0000
  N   N64       1.0  0.96516  0.95207  0.58660  1.0000
  H   H2038     1.0  0.95438  0.65901  0.65240  1.0000
  H   H2039     1.0  0.84593  0.55866  0.63720  1.0000
  H   H2040     1.0  0.95580  0.65930  0.60228  1.0000
  H   H2041     1.0  0.63277  0.95983  0.49670  1.0000
  S   S268      1.0  0.62504  0.51429  0.66997  1.0000
  H   H2042     1.0  0.93454  0.68090  0.61464  1.0000
  C   C1161     1.0  0.93681  0.66417  0.66151  1.0000
  H   H2043     1.0  0.74806  0.80898  0.59328  1.0000
  H   H2044     1.0  0.56844  0.96498  0.51287  1.0000
  H   H2045     1.0  0.99686  0.70993  0.57812  1.0000
  C   C1162     1.0  0.54969  0.69841  0.48928  1.0000
  S   S269      1.0  0.75747  0.98936  0.59780  1.0000
  H   H2046     1.0  0.53167  0.60980  0.52746  1.0000
  H   H2047     1.0  0.60981  0.56021  0.51105  1.0000
  H   H2048     1.0  0.60655  0.64469  0.69964  1.0000
  C   C1163     1.0  0.81546  0.57811  0.70782  1.0000
  C   C1164     1.0  0.94307  0.92866  0.60185  1.0000
  H   H2049     1.0  0.71197  0.75965  0.59127  1.0000
  H   H2050     1.0  0.89496  0.95930  0.59371  1.0000
  C   C1165     1.0  0.96436  0.91368  0.61345  1.0000
  H   H2051     1.0  0.99341  0.91857  0.58357  1.0000
  C   C1166     1.0  0.75192  0.53614  0.58491  1.0000
  H   H2052     1.0  0.94782  0.66430  0.67437  1.0000
  H   H2053     1.0  0.57390  0.71087  0.49836  1.0000
  H   H2054     1.0  0.72631  0.51899  0.57699  1.0000
  C   C1167     1.0  0.77267  0.52683  0.62742  1.0000
  C   C1168     1.0  0.99814  0.94608  0.55987  1.0000
  N   N65       1.0  0.68636  0.85786  0.57183  1.0000
  C   C1169     1.0  0.64346  0.83009  0.57187  1.0000
  C   C1170     1.0  0.69567  0.88420  0.58630  1.0000
  C   C1171     1.0  0.69574  0.88172  0.55578  1.0000
  C   C1172     1.0  0.71085  0.83878  0.57258  1.0000
  C   C1173     1.0  0.69395  0.79966  0.58211  1.0000
  C   C1174     1.0  0.62743  0.80635  0.55589  1.0000
  C   C1175     1.0  0.73717  0.91628  0.55436  1.0000
  C   C1176     1.0  0.68751  0.86544  0.60409  1.0000
  C   C1177     1.0  0.69417  0.89432  0.61744  1.0000
  C   C1178     1.0  0.89420  0.63387  0.66031  1.0000
  C   C1179     1.0  0.58628  0.77344  0.55862  1.0000
  C   C1180     1.0  0.74718  0.93154  0.53628  1.0000
  H   H2055     1.0  0.62715  0.84571  0.57334  1.0000
  H   H2056     1.0  0.63476  0.80998  0.58281  1.0000
  H   H2057     1.0  0.72686  0.90599  0.58632  1.0000
  H   H2058     1.0  0.67977  0.90030  0.58487  1.0000
  H   H2059     1.0  0.67533  0.89283  0.55387  1.0000
  H   H2060     1.0  0.69168  0.86386  0.54479  1.0000
  H   H2061     1.0  0.71778  0.83378  0.55976  1.0000
  H   H2062     1.0  0.73952  0.85829  0.57817  1.0000
  H   H2063     1.0  0.67050  0.77710  0.57470  1.0000
  H   H2064     1.0  0.68169  0.79961  0.59444  1.0000
  H   H2065     1.0  0.62630  0.82462  0.54542  1.0000
  H   H2066     1.0  0.64593  0.79463  0.55194  1.0000
  H   H2067     1.0  0.75901  0.90870  0.55882  1.0000
  H   H2068     1.0  0.73934  0.93968  0.56202  1.0000
  H   H2069     1.0  0.65732  0.84198  0.60548  1.0000
  H   H2070     1.0  0.70766  0.85451  0.60692  1.0000
  H   H2071     1.0  0.68660  0.87973  0.62997  1.0000
  H   H2072     1.0  0.72506  0.91677  0.61769  1.0000
  H   H2073     1.0  0.67602  0.90775  0.61504  1.0000
  H   H2074     1.0  0.73806  0.78751  0.57298  1.0000
  H   H2075     1.0  0.79254  0.55250  0.56464  1.0000
  H   H2076     1.0  0.57522  0.75774  0.54683  1.0000
  H   H2077     1.0  0.58558  0.75324  0.56857  1.0000
  H   H2078     1.0  0.56689  0.78451  0.56221  1.0000
  C   C1181     1.0  0.60827  0.95364  0.48821  1.0000
  H   H2079     1.0  0.72555  0.93881  0.53115  1.0000
  H   H2080     1.0  0.74329  0.54926  0.59479  1.0000
  N   N66       1.0  0.85663  0.61991  0.57534  1.0000
  C   C1182     1.0  0.88524  0.64691  0.58775  1.0000
  C   C1183     1.0  0.84721  0.64248  0.56255  1.0000
  C   C1184     1.0  0.81981  0.59370  0.58486  1.0000
  C   C1185     1.0  0.87085  0.59614  0.56687  1.0000
  C   C1186     1.0  0.91524  0.61467  0.56415  1.0000
  C   C1187     1.0  0.89285  0.62751  0.60333  1.0000
  C   C1188     1.0  0.78448  0.56686  0.57410  1.0000
  C   C1189     1.0  0.88070  0.67129  0.55117  1.0000
  C   C1190     1.0  0.86812  0.69436  0.53982  1.0000
  C   C1191     1.0  0.58202  0.55129  0.50450  1.0000
  C   C1192     1.0  0.60705  0.99038  0.48291  1.0000
  H   H2081     1.0  0.87505  0.66597  0.59261  1.0000
  H   H2082     1.0  0.91332  0.66674  0.58169  1.0000
  H   H2083     1.0  0.82486  0.62325  0.55367  1.0000
  H   H2084     1.0  0.83476  0.65813  0.56894  1.0000
  H   H2085     1.0  0.81079  0.61063  0.59246  1.0000
  H   H2086     1.0  0.82468  0.57517  0.59403  1.0000
  H   H2087     1.0  0.86210  0.56905  0.57414  1.0000
  H   H2088     1.0  0.85656  0.58693  0.55448  1.0000
  H   H2089     1.0  0.92999  0.61653  0.57624  1.0000
  H   H2090     1.0  0.92828  0.64389  0.55865  1.0000
  H   H2091     1.0  0.87021  0.62063  0.61295  1.0000
  H   H2092     1.0  0.89180  0.60050  0.60015  1.0000
  H   H2093     1.0  0.54843  0.63118  0.48335  1.0000
  H   H2094     1.0  0.91565  0.90354  0.59799  1.0000
  H   H2095     1.0  0.90533  0.69165  0.55867  1.0000
  H   H2096     1.0  0.89026  0.65613  0.54282  1.0000
  H   H2097     1.0  0.84474  0.67537  0.53125  1.0000
  H   H2098     1.0  0.85781  0.71022  0.54733  1.0000
  H   H2099     1.0  0.89312  0.71542  0.53214  1.0000
  C   C1193     1.0  0.82397  0.56624  0.67766  1.0000
  H   H2100     1.0  0.53364  0.55109  0.71256  1.0000
  H   H2101     1.0  0.95308  0.97934  0.56534  1.0000
  C   C1194     1.0  0.93217  0.65344  0.61116  1.0000
  C   C1195     1.0  0.61694  0.59914  0.70796  1.0000
  H   H2102     1.0  0.61232  0.90748  0.47710  1.0000
  H   H2103     1.0  0.50853  0.66006  0.50740  1.0000
  H   H2104     1.0  0.83927  0.54391  0.70003  1.0000
  H   H2105     1.0  0.58948  0.60757  0.50467  1.0000
  H   H2106     1.0  0.67887  0.97330  0.52387  1.0000
  H   H2107     1.0  0.74825  0.91010  0.52829  1.0000
  C   C1196     1.0  0.78598  0.52840  0.64551  1.0000
  H   H2108     1.0  0.56309  0.57713  0.52230  1.0000
  H   H2109     1.0  0.56293  0.64526  0.50407  1.0000
  H   H2110     1.0  0.58699  0.55175  0.49081  1.0000
  C   C1197     1.0  0.52856  0.56700  0.49920  1.0000
  H   H2111     1.0  0.55822  0.51240  0.69660  1.0000
  H   H2112     1.0  0.93474  0.94542  0.60988  1.0000
  Fe  Fe134     1.0  0.98036  0.82867  0.60139  1.0000
  H   H2113     1.0  0.50793  0.53657  0.50228  1.0000
  H   H2114     1.0  0.77653  0.55493  0.62313  1.0000
  H   H2115     1.0  0.87000  0.59481  0.69639  1.0000
  C   C1198     1.0  0.82848  0.56054  0.64754  1.0000
  H   H2116     1.0  0.90398  0.58818  0.65324  1.0000
  H   H2117     1.0  0.79418  0.54129  0.67839  1.0000
  H   H2118     1.0  0.93576  0.63929  0.62264  1.0000
  H   H2119     1.0  0.96651  0.89069  0.60729  1.0000
  H   H2120     1.0  0.94842  0.90070  0.57312  1.0000
  H   H2121     1.0  0.81980  0.59097  0.67444  1.0000
  H   H2122     1.0  0.91270  0.59011  0.53993  1.0000
  H   H2123     1.0  0.53489  0.56783  0.48561  1.0000
  H   H2124     1.0  0.88373  0.98064  0.56564  1.0000
  H   H2125     1.0  0.54386  0.97753  0.49779  1.0000
  H   H2126     1.0  0.91358  0.56171  0.55783  1.0000
  H   H2127     1.0  0.94012  0.69273  0.65858  1.0000
  Fe  Fe135     1.0  0.64839  0.52193  0.69629  1.0000
  H   H2128     1.0  0.88605  0.53769  0.68829  1.0000
  C   C1199     1.0  0.94233  0.89677  0.62988  1.0000
  C   C1200     1.0  0.88826  0.59321  0.66339  1.0000
  H   H2129     1.0  0.97208  0.89369  0.54586  1.0000
  C   C1201     1.0  0.90577  0.00117  0.57425  1.0000
  H   H2130     1.0  0.91436  0.93481  0.57137  1.0000
  C   C1202     1.0  0.92006  0.98089  0.58626  1.0000
  H   H2131     1.0  0.77591  0.95781  0.53588  1.0000
  H   H2132     1.0  0.77245  0.58334  0.56755  1.0000
  H   H2133     1.0  0.84438  0.50971  0.65462  1.0000
  H   H2134     1.0  0.74150  0.50535  0.62654  1.0000
  H   H2135     1.0  0.76103  0.51661  0.59082  1.0000
  H   H2136     1.0  0.58107  0.93286  0.49464  1.0000
  H   H2137     1.0  0.91236  0.87380  0.62738  1.0000
  H   H2138     1.0  0.56111  0.52164  0.50871  1.0000
  C   C1203     1.0  0.50426  0.52556  0.71189  1.0000
  H   H2139     1.0  0.90629  0.53712  0.66837  1.0000
  H   H2140     1.0  0.51774  0.95827  0.53372  1.0000
  S   S270      1.0  0.81949  0.00028  0.56842  1.0000
  C   C1204     1.0  0.61270  0.93419  0.47298  1.0000
  C   C1205     1.0  0.84008  0.57064  0.69565  1.0000
  C   C1206     1.0  0.87987  0.52278  0.67630  1.0000
  H   H2141     1.0  0.99382  0.93664  0.61655  1.0000
  H   H2142     1.0  0.81537  0.60484  0.70417  1.0000
  H   H2143     1.0  0.58120  0.98072  0.47479  1.0000
  H   H2144     1.0  0.50417  0.58682  0.69645  1.0000
  H   H2145     1.0  0.63298  0.00011  0.51777  1.0000
  H   H2146     1.0  0.78526  0.55401  0.70802  1.0000
  C   C1207     1.0  0.51943  0.98442  0.52790  1.0000
  Fe  Fe136     1.0  0.75839  0.96088  0.86738  1.0000
  Fe  Fe137     1.0  0.79400  0.90934  0.86162  1.0000
  S   S271      1.0  0.80298  0.92432  0.83420  1.0000
  S   S272      1.0  0.81512  0.87239  0.87484  1.0000
  Fe  Fe138     1.0  0.74385  0.91815  0.83481  1.0000
  S   S273      1.0  0.70110  0.89291  0.81345  1.0000
  C   C1208     1.0  0.89682  0.92333  0.81809  1.0000
  S   S274      1.0  0.73282  0.89847  0.86181  1.0000
  C   C1209     1.0  0.92760  0.93044  0.83129  1.0000
  C   C1210     1.0  0.69470  0.56157  0.93157  1.0000
  H   H2147     1.0  0.96021  0.61131  0.95283  1.0000
  C   C1211     1.0  0.97534  0.90229  0.89172  1.0000
  S   S275      1.0  0.86258  0.55262  0.89018  1.0000
  S   S276      1.0  0.84292  0.52591  0.94014  1.0000
  Fe  Fe139     1.0  0.95484  0.80718  0.84161  1.0000
  H   H2148     1.0  0.52892  0.93035  0.88079  1.0000
  S   S277      1.0  0.89824  0.80247  0.83288  1.0000
  H   H2149     1.0  0.83258  0.62995  0.87232  1.0000
  H   H2150     1.0  0.73272  0.53786  0.93653  1.0000
  S   S278      1.0  0.96949  0.76053  0.83850  1.0000
  Fe  Fe140     1.0  0.53997  0.69373  0.78393  1.0000
  S   S279      1.0  0.55354  0.72307  0.75862  1.0000
  S   S280      1.0  0.57798  0.71707  0.80687  1.0000
  C   C1212     1.0  0.60329  0.58024  0.73720  1.0000
  Fe  Fe141     1.0  0.53965  0.66602  0.74886  1.0000
  H   H2151     1.0  0.69338  0.72030  0.78715  1.0000
  S   S281      1.0  0.52950  0.63751  0.77430  1.0000
  C   C1213     1.0  0.59177  0.60766  0.73939  1.0000
  H   H2152     1.0  0.60240  0.56230  0.74773  1.0000
  H   H2153     1.0  0.58217  0.61075  0.75154  1.0000
  C   C1214     1.0  0.89574  0.60234  0.88950  1.0000
  C   C1215     1.0  0.91512  0.62182  0.90381  1.0000
  C   C1216     1.0  0.94096  0.66141  0.90275  1.0000
  C   C1217     1.0  0.94767  0.68194  0.88744  1.0000
  C   C1218     1.0  0.92799  0.66251  0.87316  1.0000
  C   C1219     1.0  0.90214  0.62290  0.87421  1.0000
  H   H2154     1.0  0.91039  0.60637  0.91566  1.0000
  H   H2155     1.0  0.95611  0.67620  0.91385  1.0000
  H   H2156     1.0  0.93327  0.67787  0.86127  1.0000
  H   H2157     1.0  0.88734  0.60807  0.86307  1.0000
  C   C1220     1.0  0.83728  0.85220  0.86306  1.0000
  C   C1221     1.0  0.82909  0.84473  0.84609  1.0000
  C   C1222     1.0  0.84772  0.82918  0.83699  1.0000
  C   C1223     1.0  0.87565  0.82226  0.84465  1.0000
  C   C1224     1.0  0.88383  0.82977  0.86163  1.0000
  C   C1225     1.0  0.86377  0.84348  0.87091  1.0000
  H   H2158     1.0  0.80815  0.85064  0.84001  1.0000
  H   H2159     1.0  0.84099  0.82316  0.82389  1.0000
  H   H2160     1.0  0.90521  0.82456  0.86765  1.0000
  H   H2161     1.0  0.86986  0.84873  0.88410  1.0000
  C   C1226     1.0  0.61187  0.76608  0.80857  1.0000
  C   C1227     1.0  0.63711  0.77819  0.82231  1.0000
  C   C1228     1.0  0.66460  0.81698  0.82403  1.0000
  C   C1229     1.0  0.66705  0.84394  0.81195  1.0000
  C   C1230     1.0  0.64177  0.83184  0.79823  1.0000
  C   C1231     1.0  0.61420  0.79310  0.79655  1.0000
  H   H2162     1.0  0.63541  0.75746  0.83168  1.0000
  H   H2163     1.0  0.68394  0.82599  0.83465  1.0000
  H   H2164     1.0  0.64343  0.85257  0.78886  1.0000
  H   H2165     1.0  0.59466  0.78420  0.78601  1.0000
  S   S282      1.0  0.97397  0.81658  0.86824  1.0000
  S   S283      1.0  0.76604  0.98006  0.84026  1.0000
  H   H2166     1.0  0.63685  0.58727  0.93442  1.0000
  H   H2167     1.0  0.55557  0.96506  0.86440  1.0000
  C   C1232     1.0  0.60424  0.98482  0.96213  1.0000
  C   C1233     1.0  0.57467  0.51890  0.91279  1.0000
  H   H2168     1.0  0.65917  0.98062  0.80440  1.0000
  C   C1234     1.0  0.63425  0.69151  0.77808  1.0000
  C   C1235     1.0  0.50269  0.97734  0.90525  1.0000
  H   H2169     1.0  0.64824  0.81557  0.72636  1.0000
  H   H2170     1.0  0.71580  0.69972  0.72617  1.0000
  C   C1236     1.0  0.73221  0.56475  0.93838  1.0000
  H   H2171     1.0  0.78858  0.51298  0.87446  1.0000
  H   H2172     1.0  0.69637  0.58960  0.93285  1.0000
  C   C1237     1.0  0.92109  0.78615  0.90669  1.0000
  C   C1238     1.0  0.62333  0.56391  0.94413  1.0000
  H   H2173     1.0  0.64304  0.57452  0.95511  1.0000
  H   H2174     1.0  0.91535  0.94604  0.89107  1.0000
  H   H2175     1.0  0.96840  0.57368  0.94637  1.0000
  H   H2176     1.0  0.63928  0.91119  0.93260  1.0000
  C   C1239     1.0  0.91069  0.99569  0.89474  1.0000
  H   H2177     1.0  0.56112  0.54599  0.94108  1.0000
  H   H2178     1.0  0.60859  0.92238  0.81964  1.0000
  C   C1240     1.0  0.59256  0.63082  0.72584  1.0000
  H   H2179     1.0  0.73538  0.57085  0.95195  1.0000
  C   C1241     1.0  0.73714  0.51118  0.86518  1.0000
  H   H2180     1.0  0.56654  0.97447  0.91375  1.0000
  H   H2181     1.0  0.63621  0.55154  0.91245  1.0000
  H   H2182     1.0  0.52309  0.80351  0.82251  1.0000
  H   H2183     1.0  0.64853  0.65236  0.79164  1.0000
  C   C1242     1.0  0.69936  0.72196  0.74695  1.0000
  H   H2184     1.0  0.94999  0.79179  0.91105  1.0000
  C   C1243     1.0  0.74192  0.79940  0.79193  1.0000
  C   C1244     1.0  0.76202  0.83791  0.80041  1.0000
  H   H2185     1.0  0.76462  0.79581  0.78578  1.0000
  H   H2186     1.0  0.72832  0.77708  0.80198  1.0000
  H   H2187     1.0  0.74085  0.84232  0.80749  1.0000
  H   H2188     1.0  0.78401  0.83882  0.80936  1.0000
  H   H2189     1.0  0.77676  0.86162  0.79100  1.0000
  C   C1245     1.0  0.65782  0.76290  0.75997  1.0000
  H   H2190     1.0  0.58631  0.91623  0.94667  1.0000
  H   H2191     1.0  0.54181  0.50773  0.88974  1.0000
  H   H2192     1.0  0.69057  0.69519  0.75436  1.0000
  H   H2193     1.0  0.53042  0.98433  0.71830  1.0000
  H   H2194     1.0  0.52875  0.99781  0.89794  1.0000
  C   C1246     1.0  0.55602  0.94360  0.87334  1.0000
  N   N67       1.0  0.62090  0.52792  0.93779  1.0000
  H   H2195     1.0  0.63524  0.97013  0.92892  1.0000
  H   H2196     1.0  0.52955  0.78631  0.84290  1.0000
  H   H2197     1.0  0.89529  0.93118  0.85238  1.0000
  C   C1247     1.0  0.62907  0.92201  0.82918  1.0000
  C   C1248     1.0  0.66374  0.96322  0.83010  1.0000
  H   H2198     1.0  0.52211  0.54426  0.74279  1.0000
  H   H2199     1.0  0.69036  0.79167  0.73686  1.0000
  H   H2200     1.0  0.98006  0.95729  0.89203  1.0000
  C   C1249     1.0  0.81403  0.63192  0.88203  1.0000
  H   H2201     1.0  0.56294  0.59886  0.95631  1.0000
  H   H2202     1.0  0.69129  0.80392  0.78581  1.0000
  S   S284      1.0  0.81901  0.96997  0.86957  1.0000
  H   H2203     1.0  0.63855  0.73580  0.75372  1.0000
  C   C1250     1.0  0.61423  0.52516  0.91911  1.0000
  N   N68       1.0  0.84045  0.70544  0.87996  1.0000
  C   C1251     1.0  0.80101  0.70045  0.87616  1.0000
  C   C1252     1.0  0.83601  0.67134  0.89017  1.0000
  C   C1253     1.0  0.86112  0.73983  0.89085  1.0000
  C   C1254     1.0  0.86425  0.71188  0.86434  1.0000
  C   C1255     1.0  0.84194  0.69062  0.84846  1.0000
  C   C1256     1.0  0.80101  0.73613  0.86827  1.0000
  H   H2204     1.0  0.89731  0.72582  0.90752  1.0000
  C   C1257     1.0  0.86932  0.69355  0.83460  1.0000
  C   C1258     1.0  0.76205  0.72618  0.86050  1.0000
  C   C1259     1.0  0.57640  0.92410  0.93496  1.0000
  H   H2205     1.0  0.78337  0.69245  0.88784  1.0000
  H   H2206     1.0  0.78449  0.67644  0.86773  1.0000
  H   H2207     1.0  0.86480  0.67463  0.89328  1.0000
  H   H2208     1.0  0.82183  0.66948  0.90238  1.0000
  H   H2209     1.0  0.84258  0.73740  0.90167  1.0000
  H   H2210     1.0  0.86673  0.76611  0.88367  1.0000
  H   H2211     1.0  0.88030  0.74273  0.86056  1.0000
  H   H2212     1.0  0.88725  0.70443  0.86699  1.0000
  H   H2213     1.0  0.82469  0.70326  0.84330  1.0000
  H   H2214     1.0  0.82187  0.66005  0.85108  1.0000
  H   H2215     1.0  0.80708  0.75739  0.87803  1.0000
  H   H2216     1.0  0.82341  0.74996  0.85841  1.0000
  H   H2217     1.0  0.91963  0.74860  0.88784  1.0000
  N   N69       1.0  0.95558  0.96495  0.85918  1.0000
  H   H2218     1.0  0.85240  0.67703  0.82371  1.0000
  H   H2219     1.0  0.88749  0.72371  0.83030  1.0000
  H   H2220     1.0  0.88806  0.68193  0.83902  1.0000
  H   H2221     1.0  0.76312  0.75269  0.85548  1.0000
  H   H2222     1.0  0.75542  0.70654  0.84999  1.0000
  H   H2223     1.0  0.73872  0.71278  0.87005  1.0000
  H   H2224     1.0  0.55529  0.89644  0.92941  1.0000
  H   H2225     1.0  0.88508  0.97966  0.90302  1.0000
  H   H2226     1.0  0.60500  0.95107  0.91077  1.0000
  C   C1260     1.0  0.67166  0.79478  0.74609  1.0000
  H   H2227     1.0  0.68698  0.96354  0.83793  1.0000
  H   H2228     1.0  0.75472  0.72697  0.74039  1.0000
  H   H2229     1.0  0.65438  0.93213  0.91191  1.0000
  N   N70       1.0  0.60805  0.90399  0.84547  1.0000
  C   C1261     1.0  0.57293  0.86646  0.84132  1.0000
  C   C1262     1.0  0.59613  0.93070  0.85284  1.0000
  H   H2230     1.0  0.63584  0.68130  0.76562  1.0000
  C   C1263     1.0  0.63539  0.89869  0.85706  1.0000
  C   C1264     1.0  0.61858  0.87869  0.87421  1.0000
  C   C1265     1.0  0.58085  0.83675  0.83300  1.0000
  Fe  Fe142     1.0  0.82454  0.98446  0.84205  1.0000
  C   C1266     1.0  0.55927  0.91287  0.86397  1.0000
  H   H2231     1.0  0.51456  0.94392  0.95623  1.0000
  C   C1267     1.0  0.64668  0.86976  0.88379  1.0000
  C   C1268     1.0  0.99474  0.98835  0.85108  1.0000
  H   H2232     1.0  0.73875  0.75311  0.76637  1.0000
  H   H2233     1.0  0.55514  0.85209  0.85260  1.0000
  H   H2234     1.0  0.96028  0.91388  0.85884  1.0000
  S   S285      1.0  0.62831  0.53952  0.71942  1.0000
  H   H2235     1.0  0.52365  0.87235  0.95759  1.0000
  C   C1269     1.0  0.61228  0.94375  0.92328  1.0000
  H   H2236     1.0  0.64816  0.88334  0.85072  1.0000
  H   H2237     1.0  0.66069  0.92673  0.86008  1.0000
  H   H2238     1.0  0.59137  0.85136  0.87286  1.0000
  H   H2239     1.0  0.61356  0.89795  0.88208  1.0000
  H   H2240     1.0  0.59385  0.84707  0.82039  1.0000
  H   H2241     1.0  0.60040  0.83044  0.84075  1.0000
  C   C1270     1.0  0.62478  0.65919  0.79094  1.0000
  H   H2242     1.0  0.61881  0.79824  0.74497  1.0000
  H   H2243     1.0  0.53323  0.89803  0.85596  1.0000
  H   H2244     1.0  0.55855  0.89184  0.87336  1.0000
  H   H2245     1.0  0.90409  0.78561  0.91769  1.0000
  C   C1271     1.0  0.98293  0.60414  0.94981  1.0000
  H   H2246     1.0  0.63397  0.85578  0.89607  1.0000
  H   H2247     1.0  0.65266  0.85009  0.87666  1.0000
  H   H2248     1.0  0.67418  0.89641  0.88615  1.0000
  H   H2249     1.0  0.69496  0.00032  0.86238  1.0000
  H   H2250     1.0  0.52120  0.55467  0.77277  1.0000
  C   C1272     1.0  0.54347  0.79908  0.83062  1.0000
  H   H2251     1.0  0.63860  0.76693  0.76866  1.0000
  C   C1273     1.0  0.52227  0.92432  0.94997  1.0000
  H   H2252     1.0  0.52679  0.92693  0.91483  1.0000
  C   C1274     1.0  0.94969  0.98938  0.87140  1.0000
  C   C1275     1.0  0.57007  0.51148  0.89402  1.0000
  H   H2253     1.0  0.64094  0.90487  0.82389  1.0000
  H   H2254     1.0  0.66638  0.53309  0.95460  1.0000
  S   S286      1.0  0.73413  0.97992  0.88869  1.0000
  C   C1276     1.0  0.68089  0.97907  0.81274  1.0000
  C   C1277     1.0  0.71156  0.79753  0.77900  1.0000
  H   H2255     1.0  0.55366  0.87175  0.83275  1.0000
  C   C1278     1.0  0.90072  0.74792  0.89800  1.0000
  H   H2256     1.0  0.79372  0.57235  0.88872  1.0000
  H   H2257     1.0  0.62006  0.66729  0.80350  1.0000
  C   C1279     1.0  0.58512  0.56150  0.94988  1.0000
  H   H2258     1.0  0.59802  0.63317  0.78723  1.0000
  H   H2259     1.0  0.60973  0.69719  0.77781  1.0000
  H   H2260     1.0  0.97819  0.88327  0.88286  1.0000
  H   H2261     1.0  0.66339  0.73798  0.79431  1.0000
  C   C1280     1.0  0.80461  0.59985  0.89504  1.0000
  H   H2262     1.0  0.78637  0.62639  0.87633  1.0000
  H   H2263     1.0  0.92421  0.90249  0.83547  1.0000
  H   H2264     1.0  0.83073  0.60523  0.90228  1.0000
  C   C1281     1.0  0.67162  0.72838  0.78289  1.0000
  H   H2265     1.0  0.72758  0.82190  0.77000  1.0000
  H   H2266     1.0  0.69320  0.55528  0.91806  1.0000
  N   N71       1.0  0.55664  0.94684  0.93842  1.0000
  H   H2267     1.0  0.73418  0.78284  0.75099  1.0000
  H   H2268     1.0  0.68774  0.82346  0.75150  1.0000
  H   H2269     1.0  0.78209  0.59726  0.90382  1.0000
  H   H2270     1.0  0.57257  0.54489  0.91464  1.0000
  N   N72       1.0  0.68918  0.76055  0.76986  1.0000
  C   C1282     1.0  0.71699  0.75630  0.75871  1.0000
  H   H2271     1.0  0.90098  0.95084  0.81270  1.0000
  C   C1283     1.0  0.92352  0.95138  0.84641  1.0000
  H   H2272     1.0  0.82736  0.58095  0.72067  1.0000
  H   H2273     1.0  0.92463  0.91103  0.87258  1.0000
  H   H2274     1.0  0.61366  0.61809  0.96054  1.0000
  H   H2275     1.0  0.92518  0.80981  0.89794  1.0000
  C   C1284     1.0  0.95418  0.93067  0.86788  1.0000
  C   C1285     1.0  0.91384  0.96817  0.88305  1.0000
  H   H2276     1.0  0.94598  0.88729  0.89736  1.0000
  C   C1286     1.0  0.72895  0.72527  0.73407  1.0000
  H   H2277     1.0  0.67418  0.71952  0.73988  1.0000
  H   H2278     1.0  0.61806  0.96693  0.96155  1.0000
  C   C1287     1.0  0.59014  0.60127  0.95161  1.0000
  H   H2279     1.0  0.73800  0.75091  0.72576  1.0000
  C   C1288     1.0  0.98272  0.93915  0.88264  1.0000
  H   H2280     1.0  0.60740  0.89066  0.91490  1.0000
  H   H2281     1.0  0.59036  0.94688  0.84271  1.0000
  H   H2282     1.0  0.59338  0.53579  0.88680  1.0000
  S   S287      1.0  0.57725  0.66493  0.72787  1.0000
  C   C1289     1.0  0.61570  0.57563  0.72147  1.0000
  C   C1290     1.0  0.62921  0.91769  0.92055  1.0000
  C   C1291     1.0  0.65912  0.52947  0.94104  1.0000
  C   C1292     1.0  0.54201  0.95385  0.92185  1.0000
  H   H2283     1.0  0.75098  0.54270  0.86390  1.0000
  H   H2284     1.0  0.75733  0.58835  0.93172  1.0000
  Fe  Fe143     1.0  0.99262  0.77317  0.86470  1.0000
  H   H2285     1.0  0.55005  0.77866  0.82447  1.0000
  H   H2286     1.0  0.59685  0.61666  0.93925  1.0000
  C   C1293     1.0  0.58417  0.98519  0.94548  1.0000
  H   H2287     1.0  0.58078  0.95843  0.88200  1.0000
  H   H2288     1.0  0.91969  0.97549  0.84155  1.0000
  S   S288      1.0  0.98103  0.73160  0.88680  1.0000
  H   H2289     1.0  0.99693  0.52328  0.72327  1.0000
  H   H2290     1.0  0.95596  0.94708  0.82496  1.0000
  H   H2291     1.0  0.62013  0.76498  0.73063  1.0000
  H   H2292     1.0  0.62032  0.95269  0.86023  1.0000
  H   H2293     1.0  0.89895  0.90653  0.80785  1.0000
  H   H2294     1.0  0.57606  0.54634  0.96227  1.0000
  H   H2295     1.0  0.86748  0.90714  0.82364  1.0000
  H   H2296     1.0  0.65528  0.98307  0.83539  1.0000
  H   H2297     1.0  0.88689  0.95425  0.87563  1.0000
  H   H2298     1.0  0.69107  0.96090  0.80702  1.0000
  C   C1294     1.0  0.63751  0.79314  0.73647  1.0000
  C   C1295     1.0  0.52534  0.89758  0.96360  1.0000
  H   H2299     1.0  0.52747  0.99731  0.92933  1.0000
  Fe  Fe144     1.0  0.84823  0.51338  0.91340  1.0000
  H   H2300     1.0  0.51084  0.58949  0.72645  1.0000
  C   C1296     1.0  0.51396  0.97003  0.92278  1.0000
  H   H2301     1.0  0.78381  0.51099  0.85218  1.0000
  H   H2302     1.0  0.89573  0.50675  0.85985  1.0000
  H   H2303     1.0  0.99699  0.90890  0.90181  1.0000
  H   H2304     1.0  0.56891  0.00119  0.94798  1.0000
