data_image0
_chemical_formula_structural       SFeS2FeS2HSCHSHCH2SHCHCSH2C3H3CH3C4FeC2HC2HFeCSCH3C3H4NC6HCH2CSH4NH2CH4C2H10SH8NH2CH3C2H2NHCHC2H2C2H7CH5CH8CH5CH4C3HC3HC2FeH2FeCH2CHCHCHCH2CHSCH3CH2CHSCH2CHC2FeHCHC2H2C2HC2H4CH3CH4SFeSHSHFeS3H5SHNHC2SH3SH2FeNC3H5C3H4CSHCHFeH2CH5FeC7HCH6C2FeC4HCH2C2HC3HC2H4SC3H3FeH4CH3SH2CH4C2HC2H3C2HCHCHCHSC3SNCHFeC3HC2H7C2H4SHCH3CHCH2NFeH6CHCSH2SH2NCH3FeH5C2HC3HCSHCH2SH3FeH4SH2CH2C2S2CHS2H5C2H2CSC2H3CHCH3FeSH7FeC4HC2HCH4NH2CHCHCH2CH5CHFeHSHSCFeH3SH2FeHC2H2CHCHCHCFeH10SHCH2C2H3SHC3HCH2CHCH4C2H2CH2SCSH7C5H7CHCHCNH6C3HCH3C2H4FeH3CHCH3C2H4FeHSNC2FeSC2SCSH3CH2SH2C2HC3HCH2SC3HC4H3FeHCH3SHC2HCFeHCH6CH2CH2CSCHSH3NCH2C4H3SHCHC2H4CH5C2H2CH6C2H2CSCH2C4H6FeH2NFeH3CHFeNCHCHCH3C2H9SH2NH2SCH5SC4H2CHC2H2CH4CH2CHFeSH4FeS2FeS2FeSFeS3FeS2FeS2FeSFeS3FeHFeS3C3H3SHCH5C6H4CH4C2H2C2H3CHCH2C3HCHCH2CSH2NC2H10C2H2C2H2CNH3C5HCH3CHCH12C3HCHNC11H25C2HCHC2HNC2H2CH2CH3CSH2C2HCH3CH3C2H2CH4C2H2C2H5CNC2H2C2H3CHC2H3CH2CH8CH2C2H2CH4CSHCH2CHCH6CH3C2H2CH2CSCHCH4CFeSHCHSFe2SC2H2SC4SH2CHSFeC3H2SH3SHC2HC2H2CH2SH2SC2H10CH3C2FeCH3CHCH4C2H4C3H5CHNHCNH2FeH2C2H2NH3CHCH3C2H4C2H3C2H2C2H2C2H2CH4C2HC2H9C2H2CH2C2HCHSHCSHSHFeS2CHFeSHSCHSH3C2HFeH2C3H3C2H5SCH6C2HCSH2CH2CH2CHCHC2H4C2NHNH2CHC3H4C2H5CH2C2H3CHSC2HCHCHCH3C2H2C2H3SC2HFeH3CH4FeCSCHCH6CHCHCH3CFeH7C2H7CHSCH2CNH2C3H2CSH2NC3HFeCH3C4HCHCHCH2SCNH2C2H2C2H2C5H6C2FeHC4H4CH7CH2C2H4CH2SHCSCS2FeHSH5SCFeS2H2SCH5C2NSHCHSH2CH2SC6HFeH4CH6CSC6H7CFeHSHC3HCSH2CH3FeC3H3CHSCHFeHC2NH2CHSHCHC2H5CH5NH4FeCH3FeHCHC2HCFeC4H4CH3CH8CH6FeH2C2HCHCHFeHCH3CHC2H4CH3FeCHS2HCSH4SCS2HCSFeSHCSH2C2HCH4C5H2CHCHCH2CH3C2H3C2NFeCH3FeH4CHFeHSCHCHCHC2H3CFeHCSH4CH3CH3CH3C2H3CH5CH2C4HNHC3SHC4SCH2CH2C3H3CH8C2H3CHSH2C4HCH2CH4CHC2NH3CH4NH5CH4CH5CHCH2NC3H9SH2CHCFeH2SH3FeS2H3SH3CHSH2C2H3CFeH2CH2C4HCSH2C2SC2HFeHCSHCH2CH5CH2C2H5CH3SH3CFeH2CH2CHSH6CH2C6H2CH4CH4CHCSH4CHCH2C2H3NHCH2FeC3HC2NHCSNFeS2FeS2FeSFeS5FeS2FeS2FeSFeS3C5H4C2FeC3HC2H3FeC4HC3H2CH3C6H4C7H2CH4C2H2CH4CH2C2HC2HCH3CH4NH2CHCH5C2H3SH2CHC2H4C2H4CH2C3HC2H2CH5SH2FeHCH2NCH15C2H2NC5H14NCHC3HCH2C2H5CH18C2SH4CH3CSCHFeC3HCH4C2H2CH8C2H4C2H2CHCSCHCH4C2HC3HCHCH2CH2C2HCH2C2SCH2C3SH3FeSFeH2CH2CSC4H3CHCH2NHC2H2NH2CH3C2HFeCHFeS3C2H2C2HCH2CH5CH3CHNCH2CH4CHC4SHC3HS2CH4SH4CS2HCH2NHC3H8CH3CHCH4CHCH4C2H9C2H4CH3
_chemical_formula_sum              "S192 Fe96 H1536 C864 N48"
_cell_length_a       42.9785
_cell_length_b       42.8437
_cell_length_c       42.9402
_cell_angle_alpha    90.2599
_cell_angle_beta     90.1423
_cell_angle_gamma    90.2623

_space_group_name_H-M_alt    "P 1"
_space_group_IT_number       1

loop_
  _space_group_symop_operation_xyz
  'x, y, z'

loop_
  _atom_site_type_symbol
  _atom_site_label
  _atom_site_symmetry_multiplicity
  _atom_site_fract_x
  _atom_site_fract_y
  _atom_site_fract_z
  _atom_site_occupancy
  S   S1        1.0  0.40479  0.05965  0.07352  1.0000
  Fe  Fe1       1.0  0.08271  0.37338  0.03638  1.0000
  S   S2        1.0  0.07772  0.40142  0.08062  1.0000
  S   S3        1.0  0.11380  0.33126  0.03378  1.0000
  Fe  Fe2       1.0  0.41239  0.38721  0.05441  1.0000
  S   S4        1.0  0.42017  0.27470  0.01181  1.0000
  S   S5        1.0  0.43430  0.41548  0.09309  1.0000
  H   H1        1.0  0.29024  0.19105  0.01741  1.0000
  S   S6        1.0  0.29956  0.35885  0.04688  1.0000
  C   C1        1.0  0.41311  0.24485  0.09155  1.0000
  H   H2        1.0  0.31488  0.20890  0.04643  1.0000
  S   S7        1.0  0.38434  0.34381  0.06243  1.0000
  H   H3        1.0  0.00669  0.12638  0.05528  1.0000
  C   C2        1.0  0.29736  0.26854  0.03871  1.0000
  H   H4        1.0  0.00468  0.08482  0.02557  1.0000
  H   H5        1.0  0.44840  0.20568  0.12239  1.0000
  S   S8        1.0  0.04134  0.34888  0.01575  1.0000
  H   H6        1.0  0.09094  0.32788  0.31136  1.0000
  C   C3        1.0  0.49072  0.44163  0.10693  1.0000
  H   H7        1.0  0.13177  0.47659  0.05853  1.0000
  C   C4        1.0  0.16819  0.43740  0.03081  1.0000
  S   S9        1.0  0.43880  0.36686  0.01428  1.0000
  H   H8        1.0  0.40535  0.24439  0.11619  1.0000
  H   H9        1.0  0.17828  0.49708  0.11013  1.0000
  C   C5        1.0  0.20931  0.34929  0.02073  1.0000
  C   C6        1.0  0.23702  0.35072  0.03819  1.0000
  C   C7        1.0  0.02949  0.00878  0.23255  1.0000
  H   H10       1.0  0.18766  0.34283  0.03180  1.0000
  H   H11       1.0  0.23651  0.34560  0.06284  1.0000
  H   H12       1.0  0.05153  0.10163  0.00362  1.0000
  C   C8        1.0  0.01011  0.32299  0.30202  1.0000
  H   H13       1.0  0.39759  0.10133  0.13564  1.0000
  H   H14       1.0  0.34547  0.25479  0.05063  1.0000
  H   H15       1.0  0.09553  0.12398  0.03311  1.0000
  C   C9        1.0  0.47549  0.47906  0.03372  1.0000
  C   C10       1.0  0.06940  0.44158  0.07820  1.0000
  C   C11       1.0  0.06806  0.45710  0.04961  1.0000
  C   C12       1.0  0.26542  0.35837  0.02393  1.0000
  Fe  Fe3       1.0  0.40735  0.32535  0.01940  1.0000
  C   C13       1.0  0.26543  0.44400  0.06230  1.0000
  C   C14       1.0  0.06428  0.45836  0.10576  1.0000
  H   H16       1.0  0.07195  0.44441  0.02820  1.0000
  C   C15       1.0  0.07135  0.00387  0.09954  1.0000
  C   C16       1.0  0.47511  0.41620  0.09335  1.0000
  H   H17       1.0  0.48815  0.42839  0.17134  1.0000
  Fe  Fe4       1.0  0.37847  0.01721  0.09032  1.0000
  C   C17       1.0  0.15482  0.49441  0.09971  1.0000
  S   S10       1.0  0.37581  0.41032  0.02509  1.0000
  C   C18       1.0  0.33009  0.27537  0.05239  1.0000
  H   H18       1.0  0.06345  0.35951  0.31099  1.0000
  H   H19       1.0  0.28536  0.25135  0.05395  1.0000
  H   H20       1.0  0.28203  0.42487  0.05722  1.0000
  C   C19       1.0  0.46381  0.07087  0.05268  1.0000
  C   C20       1.0  0.44562  0.05950  0.07723  1.0000
  C   C21       1.0  0.45986  0.05247  0.10565  1.0000
  H   H21       1.0  0.45301  0.07588  0.03050  1.0000
  H   H22       1.0  0.44596  0.04391  0.12481  1.0000
  H   H23       1.0  0.18631  0.02545  0.07829  1.0000
  H   H24       1.0  0.16616  0.49843  0.05096  1.0000
  N   N1        1.0  0.45845  0.16585  0.09300  1.0000
  C   C22       1.0  0.43175  0.14456  0.10154  1.0000
  C   C23       1.0  0.46903  0.15906  0.06006  1.0000
  C   C24       1.0  0.03178  0.13039  0.06006  1.0000
  C   C25       1.0  0.45057  0.19990  0.09718  1.0000
  C   C26       1.0  0.42125  0.21199  0.08025  1.0000
  C   C27       1.0  0.41904  0.14762  0.13516  1.0000
  H   H25       1.0  0.46991  0.21489  0.08860  1.0000
  C   C28       1.0  0.44371  0.15013  0.03561  1.0000
  H   H26       1.0  0.47546  0.37312  0.16440  1.0000
  H   H27       1.0  0.48265  0.17906  0.05082  1.0000
  C   C29       1.0  0.39099  0.12606  0.13987  1.0000
  S   S11       1.0  0.01610  0.05725  0.27181  1.0000
  H   H28       1.0  0.43889  0.11982  0.09822  1.0000
  H   H29       1.0  0.41160  0.14774  0.08573  1.0000
  H   H30       1.0  0.25393  0.02032  0.18377  1.0000
  H   H31       1.0  0.48545  0.13907  0.05998  1.0000
  N   N2        1.0  0.29655  0.25796  0.00516  1.0000
  H   H32       1.0  0.07289  0.02959  0.04089  1.0000
  H   H33       1.0  0.00994  0.36263  0.25176  1.0000
  C   C30       1.0  0.03376  0.15471  0.08620  1.0000
  H   H34       1.0  0.40058  0.19702  0.08416  1.0000
  H   H35       1.0  0.42586  0.21368  0.05494  1.0000
  H   H36       1.0  0.03263  0.19951  0.03199  1.0000
  H   H37       1.0  0.41156  0.17188  0.14012  1.0000
  C   C31       1.0  0.48520  0.15850  0.11470  1.0000
  C   C32       1.0  0.09540  0.02329  0.31158  1.0000
  H   H38       1.0  0.43222  0.12781  0.04194  1.0000
  H   H39       1.0  0.42545  0.16805  0.03370  1.0000
  H   H40       1.0  0.11339  0.08642  0.03770  1.0000
  H   H41       1.0  0.01189  0.41598  0.11952  1.0000
  H   H42       1.0  0.50040  0.02886  0.31818  1.0000
  H   H43       1.0  0.04859  0.28973  0.30284  1.0000
  H   H44       1.0  0.43346  0.26077  0.08942  1.0000
  H   H45       1.0  0.33431  0.15720  0.03131  1.0000
  H   H46       1.0  0.03646  0.02664  0.21622  1.0000
  H   H47       1.0  0.37177  0.13233  0.12375  1.0000
  S   S12       1.0  0.06068  0.25810  0.01861  1.0000
  H   H48       1.0  0.12742  0.03881  0.27537  1.0000
  H   H49       1.0  0.35159  0.28956  0.09608  1.0000
  H   H50       1.0  0.38731  0.00917  0.20152  1.0000
  H   H51       1.0  0.02406  0.14522  0.10819  1.0000
  H   H52       1.0  0.49825  0.36282  0.19813  1.0000
  H   H53       1.0  0.31788  0.26487  0.10055  1.0000
  H   H54       1.0  0.47927  0.16483  0.13909  1.0000
  H   H55       1.0  0.16801  0.05181  0.10542  1.0000
  N   N3        1.0  0.04930  0.07410  0.04580  1.0000
  H   H56       1.0  0.40515  0.03433  0.25074  1.0000
  H   H57       1.0  0.02886  0.01744  0.07724  1.0000
  C   C33       1.0  0.01354  0.03757  0.01319  1.0000
  H   H58       1.0  0.43682  0.14067  0.15253  1.0000
  H   H59       1.0  0.46544  0.00744  0.02885  1.0000
  H   H60       1.0  0.01992  0.17558  0.07993  1.0000
  C   C34       1.0  0.48394  0.38149  0.18747  1.0000
  C   C35       1.0  0.49081  0.45048  0.01899  1.0000
  H   H61       1.0  0.38244  0.12821  0.16417  1.0000
  H   H62       1.0  0.03438  0.09148  0.09065  1.0000
  N   N4        1.0  0.17435  0.45002  0.06316  1.0000
  H   H63       1.0  0.05129  0.31801  0.27165  1.0000
  C   C36       1.0  0.16231  0.42750  0.08746  1.0000
  H   H64       1.0  0.47524  0.12620  0.00378  1.0000
  C   C37       1.0  0.20838  0.45742  0.06849  1.0000
  C   C38       1.0  0.23209  0.43143  0.06066  1.0000
  H   H65       1.0  0.20251  0.46691  0.00619  1.0000
  H   H66       1.0  0.11292  0.02725  0.33023  1.0000
  C   C39       1.0  0.16494  0.39213  0.08019  1.0000
  C   C40       1.0  0.15703  0.37236  0.10863  1.0000
  H   H67       1.0  0.25566  0.22949  0.01303  1.0000
  H   H68       1.0  0.48033  0.37191  0.07015  1.0000
  H   H69       1.0  0.02558  0.01634  0.02138  1.0000
  H   H70       1.0  0.34122  0.29498  0.03979  1.0000
  H   H71       1.0  0.17361  0.43212  0.11041  1.0000
  H   H72       1.0  0.13698  0.43123  0.09141  1.0000
  H   H73       1.0  0.26906  0.46264  0.04477  1.0000
  C   C41       1.0  0.09833  0.10056  0.02233  1.0000
  H   H74       1.0  0.14057  0.47947  0.11528  1.0000
  H   H75       1.0  0.21266  0.46366  0.09329  1.0000
  H   H76       1.0  0.21525  0.47866  0.05529  1.0000
  H   H77       1.0  0.23046  0.41237  0.07794  1.0000
  H   H78       1.0  0.39411  0.25439  0.07700  1.0000
  C   C42       1.0  0.18419  0.00863  0.12612  1.0000
  H   H79       1.0  0.28393  0.29052  0.04161  1.0000
  H   H80       1.0  0.14826  0.38569  0.06140  1.0000
  H   H81       1.0  0.18845  0.38564  0.07245  1.0000
  H   H82       1.0  0.15783  0.34723  0.10220  1.0000
  H   H83       1.0  0.17406  0.37672  0.12767  1.0000
  H   H84       1.0  0.13322  0.37772  0.11709  1.0000
  H   H85       1.0  0.10318  0.06903  0.29150  1.0000
  H   H86       1.0  0.06080  0.50127  0.02663  1.0000
  C   C43       1.0  0.10372  0.04418  0.28404  1.0000
  H   H87       1.0  0.45790  0.48915  0.01774  1.0000
  H   H88       1.0  0.07145  0.10531  0.07908  1.0000
  H   H89       1.0  0.46774  0.30091  0.05258  1.0000
  H   H90       1.0  0.49717  0.48209  0.20772  1.0000
  H   H91       1.0  0.16874  0.01186  0.14641  1.0000
  C   C44       1.0  0.06683  0.04687  0.05937  1.0000
  H   H92       1.0  0.05829  0.16207  0.09009  1.0000
  H   H93       1.0  0.02439  0.34428  0.19880  1.0000
  H   H94       1.0  0.04265  0.14045  0.03895  1.0000
  H   H95       1.0  0.49357  0.43122  0.22777  1.0000
  C   C45       1.0  0.01660  0.06488  0.03681  1.0000
  C   C46       1.0  0.06644  0.33433  0.31627  1.0000
  C   C47       1.0  0.06168  0.48929  0.04874  1.0000
  H   H96       1.0  0.00241  0.05951  0.05780  1.0000
  C   C48       1.0  0.27610  0.00979  0.01271  1.0000
  C   C49       1.0  0.15631  0.48011  0.06639  1.0000
  C   C50       1.0  0.04776  0.09961  0.07009  1.0000
  H   H97       1.0  0.08662  0.04097  0.26483  1.0000
  C   C51       1.0  0.05688  0.49021  0.10483  1.0000
  C   C52       1.0  0.00873  0.21818  0.27815  1.0000
  Fe  Fe5       1.0  0.01487  0.07154  0.32253  1.0000
  H   H98       1.0  0.08956  0.05480  0.06903  1.0000
  H   H99       1.0  0.09199  0.01456  0.11105  1.0000
  Fe  Fe6       1.0  0.07346  0.30842  0.00878  1.0000
  C   C53       1.0  0.06611  0.08496  0.01699  1.0000
  H   H100      1.0  0.27069  0.45333  0.08592  1.0000
  H   H101      1.0  0.29903  0.01554  0.02152  1.0000
  C   C54       1.0  0.48253  0.01340  0.32872  1.0000
  H   H102      1.0  0.00325  0.46635  0.02501  1.0000
  C   C55       1.0  0.02191  0.24501  0.01430  1.0000
  H   H103      1.0  0.46331  0.47221  0.05541  1.0000
  C   C56       1.0  0.17059  0.02688  0.09878  1.0000
  H   H104      1.0  0.06556  0.44660  0.12798  1.0000
  C   C57       1.0  0.32800  0.28432  0.08683  1.0000
  H   H105      1.0  0.03114  0.26063  0.26429  1.0000
  H   H106      1.0  0.14286  0.43239  0.02802  1.0000
  C   C58       1.0  0.49176  0.05870  0.11002  1.0000
  H   H107      1.0  0.14736  0.01744  0.09220  1.0000
  S   S13       1.0  0.33458  0.01640  0.11920  1.0000
  C   C59       1.0  0.01458  0.21426  0.02268  1.0000
  H   H108      1.0  0.36176  0.18717  0.02055  1.0000
  H   H109      1.0  0.46006  0.02613  0.32912  1.0000
  H   H110      1.0  0.48984  0.13287  0.11471  1.0000
  C   C60       1.0  0.47696  0.28018  0.04154  1.0000
  H   H111      1.0  0.46342  0.38622  0.20243  1.0000
  H   H112      1.0  0.47258  0.43212  0.01725  1.0000
  C   C61       1.0  0.01887  0.01737  0.26222  1.0000
  H   H113      1.0  0.22874  0.42178  0.03690  1.0000
  S   S14       1.0  0.39119  0.02343  0.31474  1.0000
  C   C62       1.0  0.04455  0.31440  0.29626  1.0000
  H   H114      1.0  0.47750  0.46053  0.11709  1.0000
  H   H115      1.0  0.04372  0.04467  0.10545  1.0000
  C   C63       1.0  0.31327  0.20215  0.02153  1.0000
  H   H116      1.0  0.31346  0.30549  0.08991  1.0000
  C   C64       1.0  0.05025  0.02899  0.08599  1.0000
  C   C65       1.0  0.49572  0.07672  0.05694  1.0000
  Fe  Fe7       1.0  0.34931  0.36510  0.02983  1.0000
  H   H117      1.0  0.20696  0.01949  0.13192  1.0000
  C   C66       1.0  0.38856  0.01528  0.25157  1.0000
  H   H118      1.0  0.23563  0.28166  0.02420  1.0000
  C   C67       1.0  0.45871  0.26345  0.02019  1.0000
  C   C68       1.0  0.00707  0.25157  0.26586  1.0000
  H   H119      1.0  0.01457  0.30446  0.23916  1.0000
  H   H120      1.0  0.17970  0.41456  0.02704  1.0000
  C   C69       1.0  0.49222  0.39185  0.08020  1.0000
  C   C70       1.0  0.45783  0.14528  0.00333  1.0000
  H   H121      1.0  0.02005  0.21787  0.30143  1.0000
  C   C71       1.0  0.37729  0.00505  0.28050  1.0000
  C   C72       1.0  0.47080  0.23640  0.00630  1.0000
  H   H122      1.0  0.00764  0.34882  0.30095  1.0000
  H   H123      1.0  0.00554  0.31716  0.32678  1.0000
  H   H124      1.0  0.29109  0.00480  0.17242  1.0000
  H   H125      1.0  0.49330  0.49695  0.03974  1.0000
  C   C73       1.0  0.33820  0.17745  0.01569  1.0000
  H   H126      1.0  0.02275  0.20353  0.26211  1.0000
  H   H127      1.0  0.07232  0.03097  0.32019  1.0000
  H   H128      1.0  0.16272  0.47962  0.00234  1.0000
  C   C74       1.0  0.17809  0.45891  0.00354  1.0000
  H   H129      1.0  0.42763  0.14636  0.57579  1.0000
  H   H130      1.0  0.49335  0.42883  0.40093  1.0000
  H   H131      1.0  0.48563  0.18271  0.59768  1.0000
  H   H132      1.0  0.39899  0.22915  0.57593  1.0000
  S   S15       1.0  0.43537  0.07163  0.44877  1.0000
  Fe  Fe8       1.0  0.46151  0.08357  0.62195  1.0000
  S   S16       1.0  0.41705  0.08216  0.59383  1.0000
  H   H133      1.0  0.22579  0.08187  0.42196  1.0000
  S   S17       1.0  0.36371  0.04707  0.39740  1.0000
  H   H134      1.0  0.14474  0.16147  0.43092  1.0000
  Fe  Fe9       1.0  0.45958  0.41652  0.63189  1.0000
  S   S18       1.0  0.48963  0.38205  0.60646  1.0000
  S   S19       1.0  0.42063  0.43863  0.60434  1.0000
  S   S20       1.0  0.11776  0.05749  0.54564  1.0000
  H   H135      1.0  0.39973  0.00650  0.52631  1.0000
  H   H136      1.0  0.39575  0.13742  0.62643  1.0000
  H   H137      1.0  0.02697  0.29469  0.37434  1.0000
  H   H138      1.0  0.20575  0.03391  0.36985  1.0000
  H   H139      1.0  0.39713  0.19130  0.52049  1.0000
  S   S21       1.0  0.06054  0.43632  0.42722  1.0000
  H   H140      1.0  0.09062  0.12310  0.40314  1.0000
  N   N5        1.0  0.45035  0.18900  0.56181  1.0000
  H   H141      1.0  0.05093  0.01363  0.57339  1.0000
  C   C75       1.0  0.49683  0.46763  0.57882  1.0000
  C   C76       1.0  0.07527  0.49269  0.45422  1.0000
  S   S22       1.0  0.01607  0.37839  0.36519  1.0000
  H   H142      1.0  0.42784  0.20148  0.62245  1.0000
  H   H143      1.0  0.40228  0.04260  0.65093  1.0000
  H   H144      1.0  0.47415  0.09784  0.49633  1.0000
  S   S23       1.0  0.09442  0.04153  0.40105  1.0000
  H   H145      1.0  0.21909  0.13851  0.38524  1.0000
  H   H146      1.0  0.21726  0.19932  0.42367  1.0000
  Fe  Fe10      1.0  0.16133  0.00381  0.63920  1.0000
  N   N6        1.0  0.01010  0.49204  0.53904  1.0000
  C   C77       1.0  0.08789  0.07076  0.45763  1.0000
  C   C78       1.0  0.09364  0.07427  0.48959  1.0000
  C   C79       1.0  0.28610  0.04201  0.62402  1.0000
  H   H147      1.0  0.13817  0.09129  0.41569  1.0000
  H   H148      1.0  0.07498  0.08842  0.44542  1.0000
  H   H149      1.0  0.08480  0.09449  0.50184  1.0000
  H   H150      1.0  0.06209  0.49921  0.58441  1.0000
  H   H151      1.0  0.44552  0.24105  0.66425  1.0000
  C   C80       1.0  0.10404  0.14496  0.40710  1.0000
  C   C81       1.0  0.20244  0.13661  0.43376  1.0000
  C   C82       1.0  0.39794  0.16271  0.63168  1.0000
  H   H152      1.0  0.46632  0.23589  0.55189  1.0000
  H   H153      1.0  0.46169  0.16061  0.52118  1.0000
  H   H154      1.0  0.06139  0.04781  0.61757  1.0000
  H   H155      1.0  0.00709  0.09600  0.51272  1.0000
  C   C83       1.0  0.41840  0.47960  0.60194  1.0000
  S   S24       1.0  0.01498  0.03825  0.36242  1.0000
  H   H156      1.0  0.48093  0.44732  0.58055  1.0000
  C   C84       1.0  0.04791  0.05746  0.59783  1.0000
  H   H157      1.0  0.39114  0.47816  0.55978  1.0000
  Fe  Fe11      1.0  0.05321  0.06796  0.38212  1.0000
  H   H158      1.0  0.26589  0.03981  0.60772  1.0000
  H   H159      1.0  0.25147  0.17591  0.41608  1.0000
  C   C85       1.0  0.02988  0.24464  0.36767  1.0000
  H   H160      1.0  0.15671  0.11714  0.39005  1.0000
  H   H161      1.0  0.16009  0.07617  0.46430  1.0000
  H   H162      1.0  0.11184  0.15413  0.38424  1.0000
  H   H163      1.0  0.45073  0.01463  0.49811  1.0000
  H   H164      1.0  0.23176  0.02732  0.40236  1.0000
  Fe  Fe12      1.0  0.01862  0.41569  0.40256  1.0000
  C   C86       1.0  0.09953  0.04496  0.44152  1.0000
  C   C87       1.0  0.42870  0.07799  0.48847  1.0000
  C   C88       1.0  0.40058  0.06910  0.50216  1.0000
  C   C89       1.0  0.39683  0.07162  0.53450  1.0000
  C   C90       1.0  0.42143  0.08215  0.55324  1.0000
  C   C91       1.0  0.44918  0.09193  0.53941  1.0000
  C   C92       1.0  0.45252  0.09056  0.50697  1.0000
  H   H165      1.0  0.08829  0.16243  0.41786  1.0000
  C   C93       1.0  0.40178  0.49302  0.57728  1.0000
  H   H166      1.0  0.46816  0.10026  0.55360  1.0000
  H   H167      1.0  0.49407  0.04509  0.51082  1.0000
  H   H168      1.0  0.39102  0.16202  0.47106  1.0000
  H   H169      1.0  0.05301  0.24559  0.35786  1.0000
  H   H170      1.0  0.42440  0.27707  0.59593  1.0000
  H   H171      1.0  0.42451  0.47020  0.46600  1.0000
  C   C94       1.0  0.01510  0.45933  0.52675  1.0000
  C   C95       1.0  0.27415  0.02705  0.65469  1.0000
  Fe  Fe13      1.0  0.40402  0.03476  0.42786  1.0000
  C   C96       1.0  0.41462  0.16880  0.47933  1.0000
  C   C97       1.0  0.48176  0.17755  0.57257  1.0000
  C   C98       1.0  0.48583  0.45978  0.47612  1.0000
  C   C99       1.0  0.41931  0.27437  0.57066  1.0000
  H   H172      1.0  0.06195  0.33030  0.34140  1.0000
  C   C100      1.0  0.11690  0.02255  0.45755  1.0000
  H   H173      1.0  0.02419  0.44429  0.54577  1.0000
  H   H174      1.0  0.22111  0.07201  0.47243  1.0000
  C   C101      1.0  0.15272  0.11269  0.41526  1.0000
  C   C102      1.0  0.30698  0.06695  0.56328  1.0000
  H   H175      1.0  0.28583  0.07712  0.57394  1.0000
  C   C103      1.0  0.12230  0.02583  0.48969  1.0000
  C   C104      1.0  0.42379  0.49232  0.47946  1.0000
  C   C105      1.0  0.42580  0.17187  0.58029  1.0000
  H   H176      1.0  0.41663  0.48703  0.50369  1.0000
  C   C106      1.0  0.31281  0.03304  0.57453  1.0000
  C   C107      1.0  0.48500  0.21033  0.66049  1.0000
  H   H177      1.0  0.17223  0.48218  0.41020  1.0000
  H   H178      1.0  0.14536  0.48667  0.36015  1.0000
  H   H179      1.0  0.21688  0.06738  0.52928  1.0000
  H   H180      1.0  0.44726  0.16429  0.62588  1.0000
  S   S25       1.0  0.46597  0.30205  0.64734  1.0000
  C   C108      1.0  0.49118  0.42763  0.42667  1.0000
  C   C109      1.0  0.15056  0.49604  0.40986  1.0000
  C   C110      1.0  0.03263  0.03088  0.57939  1.0000
  H   H181      1.0  0.41132  0.23841  0.53673  1.0000
  H   H182      1.0  0.40206  0.17832  0.57262  1.0000
  H   H183      1.0  0.46634  0.44387  0.48249  1.0000
  Fe  Fe14      1.0  0.38151  0.00995  0.36497  1.0000
  H   H184      1.0  0.19229  0.15339  0.45077  1.0000
  H   H185      1.0  0.43101  0.14999  0.47249  1.0000
  H   H186      1.0  0.00868  0.49750  0.47467  1.0000
  H   H187      1.0  0.42151  0.19087  0.46769  1.0000
  C   C111      1.0  0.20112  0.08284  0.41399  1.0000
  H   H188      1.0  0.33445  0.02540  0.56267  1.0000
  H   H189      1.0  0.34247  0.07030  0.61653  1.0000
  H   H190      1.0  0.16368  0.11477  0.47788  1.0000
  S   S26       1.0  0.02176  0.10061  0.40788  1.0000
  H   H191      1.0  0.22602  0.13129  0.44311  1.0000
  H   H192      1.0  0.46760  0.47148  0.42937  1.0000
  C   C112      1.0  0.20755  0.15390  0.40250  1.0000
  H   H193      1.0  0.16357  0.04830  0.40590  1.0000
  H   H194      1.0  0.08456  0.47906  0.47321  1.0000
  H   H195      1.0  0.06411  0.07099  0.58293  1.0000
  H   H196      1.0  0.03364  0.45905  0.50861  1.0000
  C   C113      1.0  0.04995  0.49516  0.40397  1.0000
  C   C114      1.0  0.20706  0.02708  0.39474  1.0000
  H   H197      1.0  0.45740  0.22969  0.59132  1.0000
  C   C115      1.0  0.41431  0.17302  0.51470  1.0000
  C   C116      1.0  0.17633  0.09642  0.46466  1.0000
  H   H198      1.0  0.18518  0.16195  0.39248  1.0000
  H   H199      1.0  0.32708  0.08227  0.56902  1.0000
  H   H200      1.0  0.18783  0.03975  0.43888  1.0000
  C   C117      1.0  0.41769  0.23981  0.56173  1.0000
  C   C118      1.0  0.43201  0.49892  0.62456  1.0000
  H   H201      1.0  0.45063  0.02235  0.55394  1.0000
  C   C119      1.0  0.24625  0.00529  0.48314  1.0000
  H   H202      1.0  0.20255  0.08937  0.38898  1.0000
  C   C120      1.0  0.01719  0.04339  0.54925  1.0000
  H   H203      1.0  0.00346  0.05051  0.45688  1.0000
  C   C121      1.0  0.01509  0.27256  0.37677  1.0000
  H   H204      1.0  0.40617  0.15055  0.52476  1.0000
  S   S27       1.0  0.28889  0.01553  0.43703  1.0000
  C   C122      1.0  0.42680  0.17645  0.61606  1.0000
  C   C123      1.0  0.01524  0.21546  0.37173  1.0000
  C   C124      1.0  0.13191  0.13911  0.42849  1.0000
  S   S28       1.0  0.05594  0.09863  0.34025  1.0000
  N   N7        1.0  0.18313  0.10718  0.43197  1.0000
  C   C125      1.0  0.30237  0.06769  0.52793  1.0000
  H   H205      1.0  0.45776  0.46793  0.52950  1.0000
  Fe  Fe15      1.0  0.02107  0.12963  0.36425  1.0000
  C   C126      1.0  0.20526  0.08815  0.48471  1.0000
  C   C127      1.0  0.06143  0.47744  0.42869  1.0000
  C   C128      1.0  0.19582  0.07262  0.51524  1.0000
  H   H206      1.0  0.12268  0.13251  0.45168  1.0000
  C   C129      1.0  0.44937  0.22380  0.56729  1.0000
  C   C130      1.0  0.11073  0.05178  0.50573  1.0000
  H   H207      1.0  0.32283  0.05766  0.51573  1.0000
  H   H208      1.0  0.28128  0.05415  0.52117  1.0000
  H   H209      1.0  0.38185  0.06001  0.48786  1.0000
  H   H210      1.0  0.43766  0.28662  0.55717  1.0000
  H   H211      1.0  0.21855  0.10965  0.49069  1.0000
  H   H212      1.0  0.18048  0.08822  0.52904  1.0000
  H   H213      1.0  0.37534  0.06413  0.54508  1.0000
  C   C131      1.0  0.48837  0.46059  0.44008  1.0000
  C   C132      1.0  0.35173  0.04134  0.65584  1.0000
  H   H214      1.0  0.04031  0.48367  0.38367  1.0000
  H   H215      1.0  0.01596  0.47906  0.58738  1.0000
  H   H216      1.0  0.36468  0.03721  0.60706  1.0000
  H   H217      1.0  0.18339  0.05031  0.51056  1.0000
  S   S29       1.0  0.03524  0.18106  0.36017  1.0000
  H   H218      1.0  0.39662  0.28567  0.56576  1.0000
  C   C133      1.0  0.44724  0.18131  0.52735  1.0000
  H   H219      1.0  0.37664  0.17490  0.62368  1.0000
  H   H220      1.0  0.29936  0.09215  0.52010  1.0000
  H   H221      1.0  0.29367  0.01831  0.56490  1.0000
  C   C134      1.0  0.48664  0.26658  0.65093  1.0000
  H   H222      1.0  0.48273  0.15172  0.57030  1.0000
  C   C135      1.0  0.22820  0.18270  0.40710  1.0000
  H   H223      1.0  0.03289  0.04775  0.48512  1.0000
  H   H224      1.0  0.38465  0.08036  0.65749  1.0000
  N   N8        1.0  0.31508  0.02831  0.60935  1.0000
  Fe  Fe16      1.0  0.48450  0.35199  0.64910  1.0000
  H   H225      1.0  0.11701  0.49941  0.56674  1.0000
  H   H226      1.0  0.05882  0.00886  0.51638  1.0000
  H   H227      1.0  0.12423  0.46027  0.38514  1.0000
  H   H228      1.0  0.03677  0.05186  0.53484  1.0000
  H   H229      1.0  0.23142  0.19471  0.38445  1.0000
  H   H230      1.0  0.44502  0.48876  0.64350  1.0000
  C   C136      1.0  0.18774  0.04913  0.41486  1.0000
  H   H231      1.0  0.28931  0.06753  0.62810  1.0000
  C   C137      1.0  0.34407  0.04478  0.62079  1.0000
  S   S30       1.0  0.18538  0.02655  0.59867  1.0000
  H   H232      1.0  0.13717  0.49037  0.43118  1.0000
  H   H233      1.0  0.39995  0.16563  0.65733  1.0000
  S   S31       1.0  0.47994  0.03885  0.64150  1.0000
  H   H234      1.0  0.45662  0.20074  0.51293  1.0000
  H   H235      1.0  0.48965  0.00808  0.35297  1.0000
  N   N9        1.0  0.48259  0.49103  0.49215  1.0000
  C   C138      1.0  0.47677  0.48540  0.52632  1.0000
  H   H236      1.0  0.35212  0.01658  0.66311  1.0000
  H   H237      1.0  0.07001  0.47011  0.55495  1.0000
  H   H238      1.0  0.02996  0.07350  0.60721  1.0000
  Fe  Fe17      1.0  0.14056  0.01896  0.57278  1.0000
  H   H239      1.0  0.25354  0.48389  0.40762  1.0000
  H   H240      1.0  0.47028  0.41348  0.43246  1.0000
  H   H241      1.0  0.22887  0.04990  0.65323  1.0000
  H   H242      1.0  0.01575  0.01954  0.59512  1.0000
  H   H243      1.0  0.46987  0.01388  0.44953  1.0000
  C   C139      1.0  0.38367  0.05521  0.66368  1.0000
  C   C140      1.0  0.00526  0.08988  0.48774  1.0000
  H   H244      1.0  0.48564  0.48848  0.58915  1.0000
  C   C141      1.0  0.06718  0.49547  0.55934  1.0000
  C   C142      1.0  0.13143  0.48498  0.38183  1.0000
  C   C143      1.0  0.47005  0.23945  0.65892  1.0000
  H   H245      1.0  0.01251  0.40044  0.49916  1.0000
  C   C144      1.0  0.00845  0.05469  0.48199  1.0000
  S   S32       1.0  0.46403  0.11017  0.66707  1.0000
  H   H246      1.0  0.23035  0.01793  0.46844  1.0000
  C   C145      1.0  0.49543  0.01413  0.45311  1.0000
  H   H247      1.0  0.47222  0.18982  0.66765  1.0000
  H   H248      1.0  0.02407  0.10255  0.47541  1.0000
  S   S33       1.0  0.49941  0.44187  0.65443  1.0000
  H   H249      1.0  0.13585  0.00859  0.50183  1.0000
  H   H250      1.0  0.19805  0.00291  0.39711  1.0000
  H   H251      1.0  0.11013  0.49928  0.37918  1.0000
  Fe  Fe18      1.0  0.33879  0.00810  0.42203  1.0000
  H   H252      1.0  0.00381  0.06473  0.55547  1.0000
  H   H253      1.0  0.26391  0.00367  0.64957  1.0000
  H   H254      1.0  0.37581  0.49988  0.46560  1.0000
  H   H255      1.0  0.12629  0.00271  0.44513  1.0000
  S   S34       1.0  0.08809  0.07671  0.91563  1.0000
  H   H256      1.0  0.09941  0.03265  0.69632  1.0000
  H   H257      1.0  0.00992  0.48965  0.97299  1.0000
  C   C146      1.0  0.44862  0.49166  0.91218  1.0000
  H   H258      1.0  0.00621  0.24452  0.89726  1.0000
  H   H259      1.0  0.25521  0.06098  0.84231  1.0000
  C   C147      1.0  0.50040  0.40371  0.96975  1.0000
  C   C148      1.0  0.40801  0.46662  0.69902  1.0000
  S   S35       1.0  0.02938  0.38859  0.93486  1.0000
  S   S36       1.0  0.17576  0.35264  0.96588  1.0000
  C   C149      1.0  0.02646  0.24450  0.91346  1.0000
  H   H260      1.0  0.42668  0.48479  0.75865  1.0000
  S   S37       1.0  0.41513  0.40738  0.93889  1.0000
  S   S38       1.0  0.46898  0.04798  0.73156  1.0000
  H   H261      1.0  0.00757  0.20431  0.95796  1.0000
  H   H262      1.0  0.43308  0.43642  0.72971  1.0000
  H   H263      1.0  0.05437  0.31667  0.88707  1.0000
  H   H264      1.0  0.39192  0.42936  0.72776  1.0000
  H   H265      1.0  0.26261  0.23782  0.97342  1.0000
  C   C150      1.0  0.20981  0.35546  0.98883  1.0000
  C   C151      1.0  0.42334  0.49873  0.82301  1.0000
  H   H266      1.0  0.23975  0.03517  0.69082  1.0000
  H   H267      1.0  0.43923  0.13873  0.98651  1.0000
  C   C152      1.0  0.37529  0.43009  0.78814  1.0000
  S   S39       1.0  0.15757  0.03118  0.87721  1.0000
  C   C153      1.0  0.42447  0.44742  0.93842  1.0000
  C   C154      1.0  0.41450  0.46737  0.96216  1.0000
  H   H268      1.0  0.46417  0.02797  0.88344  1.0000
  H   H269      1.0  0.37080  0.42091  0.81195  1.0000
  H   H270      1.0  0.02350  0.04424  0.99035  1.0000
  C   C155      1.0  0.44185  0.45957  0.91361  1.0000
  H   H271      1.0  0.44473  0.03567  0.98257  1.0000
  C   C156      1.0  0.48859  0.34818  0.95149  1.0000
  H   H272      1.0  0.20213  0.01986  0.81442  1.0000
  H   H273      1.0  0.45006  0.44414  0.89549  1.0000
  H   H274      1.0  0.46001  0.00714  0.84694  1.0000
  Fe  Fe19      1.0  0.06019  0.36556  0.97021  1.0000
  S   S40       1.0  0.16574  0.02802  0.68617  1.0000
  H   H275      1.0  0.32458  0.39768  0.76289  1.0000
  H   H276      1.0  0.23874  0.36797  0.94984  1.0000
  H   H277      1.0  0.19188  0.42179  0.97158  1.0000
  H   H278      1.0  0.30636  0.33053  0.93974  1.0000
  H   H279      1.0  0.46426  0.39308  0.85738  1.0000
  H   H280      1.0  0.05717  0.26030  0.87555  1.0000
  H   H281      1.0  0.34161  0.30822  0.93382  1.0000
  Fe  Fe20      1.0  0.11463  0.03213  0.90710  1.0000
  C   C157      1.0  0.48734  0.05016  0.84406  1.0000
  C   C158      1.0  0.04823  0.07164  0.92305  1.0000
  C   C159      1.0  0.03219  0.04539  0.91196  1.0000
  C   C160      1.0  0.03214  0.09464  0.93969  1.0000
  H   H282      1.0  0.04447  0.11493  0.94828  1.0000
  C   C161      1.0  0.48833  0.48344  0.73197  1.0000
  C   C162      1.0  0.04636  0.19751  0.88773  1.0000
  H   H283      1.0  0.48082  0.42673  0.83843  1.0000
  C   C163      1.0  0.34391  0.44307  0.77599  1.0000
  H   H284      1.0  0.21308  0.09946  0.85115  1.0000
  H   H285      1.0  0.22248  0.04491  0.86270  1.0000
  H   H286      1.0  0.03360  0.41587  0.86273  1.0000
  H   H287      1.0  0.45179  0.45132  0.79500  1.0000
  N   N10       1.0  0.40202  0.45300  0.78895  1.0000
  H   H288      1.0  0.07187  0.26927  0.91386  1.0000
  H   H289      1.0  0.06327  0.05016  0.70779  1.0000
  C   C164      1.0  0.43198  0.41794  0.82763  1.0000
  H   H290      1.0  0.08774  0.21789  0.92599  1.0000
  C   C165      1.0  0.17570  0.44192  0.97226  1.0000
  H   H291      1.0  0.22003  0.09327  0.81018  1.0000
  C   C166      1.0  0.02088  0.42312  0.84138  1.0000
  H   H292      1.0  0.01887  0.16942  0.93959  1.0000
  H   H293      1.0  0.06751  0.20907  0.87821  1.0000
  C   C167      1.0  0.49988  0.46155  0.75301  1.0000
  H   H294      1.0  0.41641  0.39719  0.82652  1.0000
  H   H295      1.0  0.31463  0.41053  0.80187  1.0000
  H   H296      1.0  0.34580  0.45056  0.75137  1.0000
  H   H297      1.0  0.27660  0.28012  0.94402  1.0000
  H   H298      1.0  0.19017  0.28268  0.98967  1.0000
  C   C168      1.0  0.05302  0.16200  0.88712  1.0000
  H   H299      1.0  0.49131  0.33870  0.97537  1.0000
  Fe  Fe21      1.0  0.49446  0.40761  0.69321  1.0000
  H   H300      1.0  0.06454  0.23452  0.95563  1.0000
  S   S41       1.0  0.22897  0.01871  0.93146  1.0000
  H   H301      1.0  0.47611  0.41044  0.96390  1.0000
  S   S42       1.0  0.50073  0.42154  0.74374  1.0000
  C   C169      1.0  0.40996  0.44784  0.72914  1.0000
  Fe  Fe22      1.0  0.12737  0.34965  0.98684  1.0000
  H   H302      1.0  0.46378  0.35418  0.94744  1.0000
  H   H303      1.0  0.44175  0.48510  0.83489  1.0000
  H   H304      1.0  0.02849  0.40806  0.82173  1.0000
  S   S43       1.0  0.45162  0.38525  0.67292  1.0000
  H   H305      1.0  0.40119  0.45822  0.98141  1.0000
  H   H306      1.0  0.43833  0.04240  0.85369  1.0000
  Fe  Fe23      1.0  0.48640  0.06658  0.68557  1.0000
  H   H307      1.0  0.41292  0.45115  0.67879  1.0000
  C   C170      1.0  0.07265  0.18615  0.96226  1.0000
  C   C171      1.0  0.03686  0.30049  0.89718  1.0000
  H   H308      1.0  0.29618  0.42799  0.76851  1.0000
  H   H309      1.0  0.43596  0.41741  0.77788  1.0000
  C   C172      1.0  0.05049  0.26766  0.89941  1.0000
  H   H310      1.0  0.31249  0.25896  0.94051  1.0000
  C   C173      1.0  0.20740  0.26356  0.98711  1.0000
  H   H311      1.0  0.49514  0.32964  0.93461  1.0000
  C   C174      1.0  0.31588  0.30795  0.93133  1.0000
  H   H312      1.0  0.02785  0.20219  0.87023  1.0000
  C   C175      1.0  0.43143  0.43541  0.79607  1.0000
  Fe  Fe24      1.0  0.40049  0.38701  0.98517  1.0000
  H   H313      1.0  0.33629  0.46331  0.79021  1.0000
  H   H314      1.0  0.28407  0.03054  0.96771  1.0000
  H   H315      1.0  0.14294  0.02529  0.79801  1.0000
  H   H316      1.0  0.12337  0.18795  0.96191  1.0000
  H   H317      1.0  0.38642  0.46652  0.83526  1.0000
  H   H318      1.0  0.18209  0.45808  0.95314  1.0000
  H   H319      1.0  0.18644  0.07578  0.82866  1.0000
  H   H320      1.0  0.01580  0.30058  0.88214  1.0000
  H   H321      1.0  0.01790  0.25475  0.93580  1.0000
  H   H322      1.0  0.03835  0.15414  0.83900  1.0000
  S   S44       1.0  0.09917  0.39343  0.99133  1.0000
  H   H323      1.0  0.05444  0.18506  0.98047  1.0000
  C   C176      1.0  0.23820  0.36321  0.97456  1.0000
  H   H324      1.0  0.33295  0.28828  0.98821  1.0000
  H   H325      1.0  0.07947  0.16281  0.84376  1.0000
  C   C177      1.0  0.21134  0.08219  0.83184  1.0000
  C   C178      1.0  0.05913  0.15049  0.85396  1.0000
  H   H326      1.0  0.23039  0.03989  0.79172  1.0000
  H   H327      1.0  0.42417  0.43293  0.84713  1.0000
  H   H328      1.0  0.38433  0.47646  0.69598  1.0000
  S   S45       1.0  0.08953  0.32333  0.96137  1.0000
  H   H329      1.0  0.38135  0.40909  0.77405  1.0000
  C   C179      1.0  0.06629  0.21379  0.93993  1.0000
  C   C180      1.0  0.14837  0.01158  0.77752  1.0000
  C   C181      1.0  0.23063  0.05338  0.83978  1.0000
  H   H330      1.0  0.00412  0.28776  0.99528  1.0000
  C   C182      1.0  0.31835  0.41820  0.77747  1.0000
  H   H331      1.0  0.31499  0.22151  0.97553  1.0000
  H   H332      1.0  0.15054  0.05137  0.74691  1.0000
  C   C183      1.0  0.48845  0.01582  0.74762  1.0000
  H   H333      1.0  0.03067  0.30938  0.92067  1.0000
  C   C184      1.0  0.46474  0.40656  0.83535  1.0000
  H   H334      1.0  0.48659  0.07343  0.85544  1.0000
  H   H335      1.0  0.38604  0.48533  0.75369  1.0000
  H   H336      1.0  0.07282  0.16346  0.95007  1.0000
  H   H337      1.0  0.06428  0.12508  0.85444  1.0000
  C   C185      1.0  0.46092  0.03066  0.85791  1.0000
  C   C186      1.0  0.15264  0.02627  0.74858  1.0000
  H   H338      1.0  0.28765  0.37092  0.98091  1.0000
  H   H339      1.0  0.07415  0.15667  0.90083  1.0000
  C   C187      1.0  0.10398  0.19024  0.97880  1.0000
  H   H340      1.0  0.44731  0.01721  0.94480  1.0000
  H   H341      1.0  0.31015  0.30541  0.90621  1.0000
  S   S46       1.0  0.37068  0.34381  0.98717  1.0000
  C   C188      1.0  0.30751  0.28458  0.98500  1.0000
  S   S47       1.0  0.13797  0.01198  0.94920  1.0000
  H   H342      1.0  0.03306  0.14824  0.89600  1.0000
  H   H343      1.0  0.42524  0.48600  0.69914  1.0000
  H   H344      1.0  0.20905  0.25747  0.96200  1.0000
  H   H345      1.0  0.48230  0.05322  0.81893  1.0000
  H   H346      1.0  0.48055  0.47600  0.70919  1.0000
  H   H347      1.0  0.46177  0.50089  0.89286  1.0000
  H   H348      1.0  0.12125  0.08145  0.98121  1.0000
  C   C189      1.0  0.30184  0.28073  0.94945  1.0000
  C   C190      1.0  0.39549  0.47742  0.81358  1.0000
  C   C191      1.0  0.40587  0.46931  0.75810  1.0000
  C   C192      1.0  0.26763  0.01819  0.98225  1.0000
  C   C193      1.0  0.07375  0.03024  0.69502  1.0000
  H   H349      1.0  0.45483  0.00988  0.78427  1.0000
  H   H350      1.0  0.37651  0.49313  0.80570  1.0000
  H   H351      1.0  0.48440  0.46624  0.97185  1.0000
  H   H352      1.0  0.04433  0.02773  0.89881  1.0000
  H   H353      1.0  0.47365  0.39125  0.81642  1.0000
  H   H354      1.0  0.10134  0.11782  0.97461  1.0000
  H   H355      1.0  0.15161  0.43342  0.96808  1.0000
  C   C194      1.0  0.01206  0.19385  0.93468  1.0000
  H   H356      1.0  0.28381  0.03273  0.80172  1.0000
  C   C195      1.0  0.22690  0.02774  0.81427  1.0000
  H   H357      1.0  0.02703  0.44780  0.83639  1.0000
  C   C196      1.0  0.44631  0.01287  0.97026  1.0000
  N   N11       1.0  0.03795  0.21164  0.91889  1.0000
  H   H358      1.0  0.45680  0.22349  0.98965  1.0000
  H   H359      1.0  0.28907  0.01857  0.84004  1.0000
  H   H360      1.0  0.10550  0.21345  0.99037  1.0000
  H   H361      1.0  0.24579  0.29547  0.98612  1.0000
  H   H362      1.0  0.38836  0.05303  0.68903  1.0000
  H   H363      1.0  0.34277  0.02393  0.79831  1.0000
  C   C197      1.0  0.42078  0.49951  0.96045  1.0000
  C   C198      1.0  0.23820  0.01022  0.97042  1.0000
  C   C199      1.0  0.26592  0.36483  0.99206  1.0000
  H   H364      1.0  0.13780  0.11745  0.99555  1.0000
  C   C200      1.0  0.11564  0.10459  0.99154  1.0000
  H   H365      1.0  0.46922  0.16694  0.99504  1.0000
  H   H366      1.0  0.25793  0.07019  0.67637  1.0000
  H   H367      1.0  0.49944  0.39334  0.99348  1.0000
  C   C201      1.0  0.15948  0.00868  0.72178  1.0000
  C   C202      1.0  0.28169  0.01126  0.81617  1.0000
  H   H368      1.0  0.49576  0.01058  0.97547  1.0000
  H   H369      1.0  0.06989  0.06494  0.00079  1.0000
  H   H370      1.0  0.26138  0.00885  0.75454  1.0000
  H   H371      1.0  0.29685  0.30698  0.99247  1.0000
  Fe  Fe25      1.0  0.17949  0.00719  0.91808  1.0000
  H   H372      1.0  0.10661  0.17217  0.99700  1.0000
  H   H373      1.0  0.21983  0.00565  0.75284  1.0000
  H   H374      1.0  0.33722  0.16903  0.99119  1.0000
  C   C203      1.0  0.26369  0.24832  0.99717  1.0000
  H   H375      1.0  0.33439  0.05427  0.66991  1.0000
  C   C204      1.0  0.24868  0.04688  0.66960  1.0000
  H   H376      1.0  0.29286  0.02399  0.67211  1.0000
  H   H377      1.0  0.34401  0.00268  0.83470  1.0000
  H   H378      1.0  0.19890  0.24303  0.00035  1.0000
  C   C205      1.0  0.31787  0.23056  0.99968  1.0000
  C   C206      1.0  0.23896  0.27454  0.99954  1.0000
  H   H379      1.0  0.34274  0.23802  0.00108  1.0000
  H   H380      1.0  0.06632  0.03138  0.67029  1.0000
  H   H381      1.0  0.49320  0.92404  0.11190  1.0000
  H   H382      1.0  0.10912  0.92643  0.17662  1.0000
  Fe  Fe26      1.0  0.31628  0.98366  0.08243  1.0000
  H   H383      1.0  0.32364  0.85080  0.07138  1.0000
  S   S48       1.0  0.33442  0.94079  0.10561  1.0000
  N   N12       1.0  0.19840  0.95160  0.14279  1.0000
  C   C207      1.0  0.44036  0.93442  0.27511  1.0000
  C   C208      1.0  0.35580  0.98049  0.28137  1.0000
  Fe  Fe27      1.0  0.37763  0.94823  0.07760  1.0000
  S   S49       1.0  0.40303  0.90861  0.05383  1.0000
  C   C209      1.0  0.37846  0.00113  0.22366  1.0000
  C   C210      1.0  0.01077  0.92783  0.03135  1.0000
  S   S50       1.0  0.10563  0.92546  0.10263  1.0000
  C   C211      1.0  0.03003  0.95075  0.05073  1.0000
  S   S51       1.0  0.03674  0.79060  0.13979  1.0000
  H   H384      1.0  0.43564  0.92701  0.21110  1.0000
  H   H385      1.0  0.05274  0.50286  0.12629  1.0000
  H   H386      1.0  0.15918  0.97607  0.19086  1.0000
  C   C212      1.0  0.08428  0.62094  0.12012  1.0000
  H   H387      1.0  0.45470  0.96899  0.01718  1.0000
  H   H388      1.0  0.34596  0.85411  0.03599  1.0000
  S   S52       1.0  0.04739  0.54604  0.07524  1.0000
  H   H389      1.0  0.02696  0.91370  0.01716  1.0000
  H   H390      1.0  0.45861  0.94683  0.26158  1.0000
  C   C213      1.0  0.00924  0.65719  0.06030  1.0000
  C   C214      1.0  0.04599  0.62483  0.00576  1.0000
  H   H391      1.0  0.03110  0.77445  0.04263  1.0000
  C   C215      1.0  0.02744  0.72741  0.14637  1.0000
  C   C216      1.0  0.10700  0.92428  0.06172  1.0000
  C   C217      1.0  0.12197  0.94829  0.04537  1.0000
  H   H392      1.0  0.06977  0.75825  0.04309  1.0000
  C   C218      1.0  0.09225  0.90020  0.04525  1.0000
  H   H393      1.0  0.13365  0.96685  0.05795  1.0000
  H   H394      1.0  0.08135  0.88121  0.05764  1.0000
  S   S53       1.0  0.34463  0.95713  0.19024  1.0000
  C   C219      1.0  0.43120  0.61586  0.08597  1.0000
  C   C220      1.0  0.39316  0.92231  0.32449  1.0000
  C   C221      1.0  0.04876  0.65924  0.01718  1.0000
  H   H395      1.0  0.37811  0.94876  0.00539  1.0000
  C   C222      1.0  0.41955  0.91175  0.22444  1.0000
  C   C223      1.0  0.45433  0.96148  0.32354  1.0000
  C   C224      1.0  0.01039  0.69921  0.14512  1.0000
  C   C225      1.0  0.43299  0.90414  0.25648  1.0000
  H   H396      1.0  0.04002  0.97080  0.20121  1.0000
  H   H397      1.0  0.24553  0.88213  0.01298  1.0000
  H   H398      1.0  0.10575  0.95898  0.20296  1.0000
  Fe  Fe28      1.0  0.35523  0.97351  0.14105  1.0000
  H   H399      1.0  0.04644  0.96386  0.03566  1.0000
  C   C226      1.0  0.42739  0.91118  0.32670  1.0000
  H   H400      1.0  0.07584  0.59716  0.11398  1.0000
  H   H401      1.0  0.32942  0.94701  0.25427  1.0000
  H   H402      1.0  0.22275  0.95050  0.18695  1.0000
  S   S54       1.0  0.26566  0.97995  0.06847  1.0000
  H   H403      1.0  0.04770  0.70145  0.08551  1.0000
  C   C227      1.0  0.21883  0.96686  0.16721  1.0000
  C   C228      1.0  0.06382  0.64584  0.10510  1.0000
  H   H404      1.0  0.07287  0.98549  0.28674  1.0000
  C   C229      1.0  0.09381  0.98842  0.30173  1.0000
  Fe  Fe29      1.0  0.02620  0.84308  0.13999  1.0000
  H   H405      1.0  0.41570  0.88988  0.21096  1.0000
  C   C230      1.0  0.14744  0.95991  0.17435  1.0000
  H   H406      1.0  0.07632  0.70168  0.05557  1.0000
  H   H407      1.0  0.43527  0.58939  0.04382  1.0000
  H   H408      1.0  0.08772  0.91445  0.33121  1.0000
  H   H409      1.0  0.07911  0.88327  0.27265  1.0000
  H   H410      1.0  0.07270  0.66737  0.01129  1.0000
  H   H411      1.0  0.18395  0.88713  0.11742  1.0000
  C   C231      1.0  0.41164  0.91270  0.01392  1.0000
  H   H412      1.0  0.19044  0.92312  0.01739  1.0000
  H   H413      1.0  0.09991  0.93697  0.26452  1.0000
  C   C232      1.0  0.05556  0.50579  0.07634  1.0000
  H   H414      1.0  0.39681  0.92367  0.22691  1.0000
  H   H415      1.0  0.14349  0.97373  0.32831  1.0000
  C   C233      1.0  0.34593  0.96612  0.25347  1.0000
  S   S55       1.0  0.02517  0.91405  0.23511  1.0000
  C   C234      1.0  0.06406  0.64279  0.06912  1.0000
  H   H416      1.0  0.47298  0.92372  0.05799  1.0000
  S   S56       1.0  0.06419  0.87051  0.16441  1.0000
  H   H417      1.0  0.41583  0.88917  0.26862  1.0000
  H   H418      1.0  0.23428  0.90241  0.06922  1.0000
  H   H419      1.0  0.15646  0.92324  0.14229  1.0000
  N   N13       1.0  0.04254  0.66429  0.05141  1.0000
  C   C235      1.0  0.13989  0.52673  0.09924  1.0000
  H   H420      1.0  0.23698  0.93510  0.11505  1.0000
  H   H421      1.0  0.18295  0.91813  0.08931  1.0000
  C   C236      1.0  0.02221  0.95394  0.24482  1.0000
  C   C237      1.0  0.03130  0.97717  0.22391  1.0000
  C   C238      1.0  0.21671  0.92540  0.12800  1.0000
  C   C239      1.0  0.10382  0.88912  0.27784  1.0000
  H   H422      1.0  0.02120  0.67759  0.15198  1.0000
  H   H423      1.0  0.41976  0.95011  0.27411  1.0000
  H   H424      1.0  0.44809  0.95642  0.06680  1.0000
  S   S57       1.0  0.02802  0.93445  0.14502  1.0000
  H   H425      1.0  0.42820  0.64036  0.09398  1.0000
  C   C240      1.0  0.47148  0.93675  0.10615  1.0000
  H   H426      1.0  0.44632  0.87655  0.01436  1.0000
  C   C241      1.0  0.03218  0.72379  0.04465  1.0000
  C   C242      1.0  0.01347  0.75610  0.13888  1.0000
  H   H427      1.0  0.02606  0.61257  0.01674  1.0000
  H   H428      1.0  0.04353  0.93788  0.06849  1.0000
  H   H429      1.0  0.11789  0.88340  0.25694  1.0000
  H   H430      1.0  0.18847  0.88191  0.00809  1.0000
  C   C243      1.0  0.10722  0.92382  0.28557  1.0000
  H   H431      1.0  0.00311  0.66998  0.08201  1.0000
  H   H432      1.0  0.13741  0.53566  0.12343  1.0000
  H   H433      1.0  0.20717  0.98732  0.17783  1.0000
  H   H434      1.0  0.06203  0.93239  0.30505  1.0000
  H   H435      1.0  0.26690  0.95679  0.15284  1.0000
  C   C244      1.0  0.04591  0.75583  0.05268  1.0000
  C   C245      1.0  0.12093  0.94891  0.01267  1.0000
  H   H436      1.0  0.41103  0.60187  0.09420  1.0000
  H   H437      1.0  0.34668  0.97270  0.30347  1.0000
  C   C246      1.0  0.35710  0.97648  0.22452  1.0000
  H   H438      1.0  0.38434  0.92110  0.30023  1.0000
  H   H439      1.0  0.47768  0.88818  0.29965  1.0000
  H   H440      1.0  0.10881  0.62351  0.11242  1.0000
  H   H441      1.0  0.49114  0.99155  0.07554  1.0000
  H   H442      1.0  0.28508  0.88855  0.05109  1.0000
  H   H443      1.0  0.46979  0.95793  0.12107  1.0000
  C   C247      1.0  0.30721  0.89681  0.00597  1.0000
  C   C248      1.0  0.17068  0.93713  0.15890  1.0000
  H   H444      1.0  0.41044  0.62315  0.04131  1.0000
  H   H445      1.0  0.17867  0.92016  0.17681  1.0000
  C   C249      1.0  0.22052  0.88599  0.08365  1.0000
  S   S58       1.0  0.02761  0.87354  0.09722  1.0000
  C   C250      1.0  0.19846  0.90432  0.10460  1.0000
  H   H446      1.0  0.16595  0.96541  0.10684  1.0000
  H   H447      1.0  0.23654  0.87151  0.09782  1.0000
  C   C251      1.0  0.22522  0.98658  0.02000  1.0000
  C   C252      1.0  0.12239  0.94220  0.19246  1.0000
  C   C253      1.0  0.43290  0.61431  0.05044  1.0000
  C   C254      1.0  0.29995  0.87564  0.03434  1.0000
  H   H448      1.0  0.08351  0.62351  0.14587  1.0000
  H   H449      1.0  0.13298  0.92820  0.21139  1.0000
  H   H450      1.0  0.42800  0.88610  0.31986  1.0000
  H   H451      1.0  0.45135  0.92124  0.11127  1.0000
  H   H452      1.0  0.48136  0.62689  0.05162  1.0000
  H   H453      1.0  0.22675  0.90992  0.14623  1.0000
  Fe  Fe30      1.0  0.06289  0.90241  0.12323  1.0000
  H   H454      1.0  0.20688  0.87044  0.06793  1.0000
  H   H455      1.0  0.34109  0.88754  0.06133  1.0000
  N   N14       1.0  0.46676  0.63204  0.00359  1.0000
  Fe  Fe31      1.0  0.01100  0.55903  0.11081  1.0000
  H   H456      1.0  0.06746  0.61187  0.01202  1.0000
  H   H457      1.0  0.15449  0.54339  0.08591  1.0000
  H   H458      1.0  0.45269  0.60611  0.09653  1.0000
  C   C255      1.0  0.00968  0.99418  0.28314  1.0000
  H   H459      1.0  0.45452  0.89043  0.25277  1.0000
  Fe  Fe32      1.0  0.02598  0.90009  0.18401  1.0000
  N   N15       1.0  0.45086  0.92986  0.30834  1.0000
  C   C256      1.0  0.09150  0.90064  0.01262  1.0000
  H   H460      1.0  0.08856  0.64609  0.06126  1.0000
  C   C257      1.0  0.47096  0.94558  0.07170  1.0000
  H   H461      1.0  0.39094  0.94666  0.33294  1.0000
  C   C258      1.0  0.49977  0.58188  0.01043  1.0000
  H   H462      1.0  0.07325  0.66873  0.11288  1.0000
  H   H463      1.0  0.03982  0.64304  0.11403  1.0000
  H   H464      1.0  0.04680  0.75930  0.07831  1.0000
  C   C259      1.0  0.05113  0.69744  0.06017  1.0000
  C   C260      1.0  0.25162  0.97740  0.15620  1.0000
  H   H465      1.0  0.49792  0.92311  0.29146  1.0000
  H   H466      1.0  0.11398  0.98427  0.28608  1.0000
  H   H467      1.0  0.13521  0.97353  0.15614  1.0000
  H   H468      1.0  0.05805  0.61792  0.06418  1.0000
  H   H469      1.0  0.03331  0.67371  0.00254  1.0000
  H   H470      1.0  0.28768  0.85391  0.02761  1.0000
  H   H471      1.0  0.25037  0.92284  0.01765  1.0000
  H   H472      1.0  0.05156  0.72709  0.15363  1.0000
  H   H473      1.0  0.00796  0.72351  0.05363  1.0000
  S   S59       1.0  0.40069  0.97698  0.11514  1.0000
  H   H474      1.0  0.26966  0.98616  0.20302  1.0000
  H   H475      1.0  0.49418  0.57821  0.03537  1.0000
  N   N16       1.0  0.09355  0.96483  0.32785  1.0000
  H   H476      1.0  0.25042  0.99011  0.13383  1.0000
  H   H477      1.0  0.49714  0.53924  0.19142  1.0000
  S   S60       1.0  0.01524  0.59083  0.15251  1.0000
  C   C261      1.0  0.01134  0.96255  0.27442  1.0000
  H   H478      1.0  0.20874  0.97432  0.03455  1.0000
  H   H479      1.0  0.03190  0.72170  0.01894  1.0000
  H   H480      1.0  0.45610  0.65886  0.04479  1.0000
  H   H481      1.0  0.11640  0.52560  0.08852  1.0000
  H   H482      1.0  0.49179  0.92903  0.01056  1.0000
  S   S61       1.0  0.35781  0.98856  0.05146  1.0000
  C   C262      1.0  0.08654  0.93324  0.31362  1.0000
  C   C263      1.0  0.32953  0.86645  0.05168  1.0000
  C   C264      1.0  0.46055  0.63411  0.03810  1.0000
  C   C265      1.0  0.18826  0.97371  0.11733  1.0000
  H   H483      1.0  0.13211  0.92908  0.29015  1.0000
  H   H484      1.0  0.11206  0.87462  0.29756  1.0000
  C   C266      1.0  0.47369  0.98665  0.01554  1.0000
  H   H485      1.0  0.43216  0.97447  0.32199  1.0000
  C   C267      1.0  0.25504  0.99350  0.03142  1.0000
  C   C268      1.0  0.48131  0.91247  0.30825  1.0000
  H   H486      1.0  0.01067  0.52055  0.28698  1.0000
  H   H487      1.0  0.00649  0.63215  0.06643  1.0000
  C   C269      1.0  0.49726  0.96902  0.06396  1.0000
  H   H488      1.0  0.20517  0.97353  0.09770  1.0000
  H   H489      1.0  0.31586  0.91917  0.01640  1.0000
  H   H490      1.0  0.07926  0.98765  0.08102  1.0000
  H   H491      1.0  0.01464  0.96717  0.06328  1.0000
  C   C270      1.0  0.47954  0.98335  0.30963  1.0000
  H   H492      1.0  0.05840  0.99020  0.11720  1.0000
  H   H493      1.0  0.00400  0.94469  0.29060  1.0000
  C   C271      1.0  0.26735  0.99848  0.18041  1.0000
  H   H494      1.0  0.47324  0.99016  0.28552  1.0000
  Fe  Fe33      1.0  0.39425  0.96495  0.41858  1.0000
  S   S62       1.0  0.40929  0.91688  0.43413  1.0000
  H   H495      1.0  0.14319  0.55054  0.46534  1.0000
  H   H496      1.0  0.45665  0.98177  0.56177  1.0000
  H   H497      1.0  0.40143  0.99943  0.56755  1.0000
  H   H498      1.0  0.34747  0.91052  0.34234  1.0000
  Fe  Fe34      1.0  0.40158  0.67083  0.52520  1.0000
  S   S63       1.0  0.38131  0.65734  0.47886  1.0000
  S   S64       1.0  0.41903  0.71887  0.53874  1.0000
  Fe  Fe35      1.0  0.38970  0.60736  0.55333  1.0000
  S   S65       1.0  0.36768  0.58797  0.50969  1.0000
  S   S66       1.0  0.40405  0.58531  0.59887  1.0000
  Fe  Fe36      1.0  0.40695  0.61235  0.48514  1.0000
  S   S67       1.0  0.43063  0.58702  0.44575  1.0000
  Fe  Fe37      1.0  0.34300  0.63416  0.50623  1.0000
  S   S68       1.0  0.29510  0.64145  0.48462  1.0000
  S   S69       1.0  0.43076  0.62795  0.52882  1.0000
  S   S70       1.0  0.36137  0.65145  0.55225  1.0000
  Fe  Fe38      1.0  0.11731  0.63041  0.52728  1.0000
  S   S71       1.0  0.10637  0.65152  0.48092  1.0000
  S   S72       1.0  0.16408  0.62677  0.55149  1.0000
  Fe  Fe39      1.0  0.04885  0.61495  0.53998  1.0000
  S   S73       1.0  0.03227  0.63502  0.49469  1.0000
  S   S74       1.0  0.02059  0.59214  0.57771  1.0000
  Fe  Fe40      1.0  0.07394  0.61052  0.47466  1.0000
  S   S75       1.0  0.07036  0.58406  0.42928  1.0000
  Fe  Fe41      1.0  0.06584  0.67413  0.50506  1.0000
  S   S76       1.0  0.05853  0.72610  0.49882  1.0000
  S   S77       1.0  0.08799  0.58769  0.51914  1.0000
  S   S78       1.0  0.07919  0.65590  0.55216  1.0000
  Fe  Fe42      1.0  0.19665  0.97782  0.58340  1.0000
  H   H499      1.0  0.43503  0.82969  0.43305  1.0000
  Fe  Fe43      1.0  0.13174  0.95382  0.59767  1.0000
  S   S79       1.0  0.10164  0.91072  0.59309  1.0000
  S   S80       1.0  0.15378  0.97199  0.55404  1.0000
  S   S81       1.0  0.17602  0.95533  0.62590  1.0000
  C   C272      1.0  0.06107  0.91594  0.59114  1.0000
  C   C273      1.0  0.04717  0.94291  0.60302  1.0000
  C   C274      1.0  0.04227  0.89206  0.57881  1.0000
  H   H500      1.0  0.06139  0.96133  0.61271  1.0000
  H   H501      1.0  0.05287  0.87103  0.56979  1.0000
  H   H502      1.0  0.36370  0.83250  0.38348  1.0000
  S   S82       1.0  0.37802  0.99868  0.45522  1.0000
  H   H503      1.0  0.03829  0.78779  0.51553  1.0000
  C   C275      1.0  0.31638  0.99355  0.61503  1.0000
  H   H504      1.0  0.43602  0.81906  0.50145  1.0000
  H   H505      1.0  0.45021  0.97368  0.50044  1.0000
  H   H506      1.0  0.38498  0.53563  0.55666  1.0000
  H   H507      1.0  0.37909  0.80708  0.43226  1.0000
  H   H508      1.0  0.02994  0.88058  0.36021  1.0000
  C   C276      1.0  0.25902  0.63742  0.50388  1.0000
  C   C277      1.0  0.25699  0.62711  0.53464  1.0000
  C   C278      1.0  0.22769  0.62382  0.54887  1.0000
  C   C279      1.0  0.20026  0.63081  0.53250  1.0000
  C   C280      1.0  0.20228  0.64137  0.50183  1.0000
  C   C281      1.0  0.23156  0.64458  0.48758  1.0000
  H   H509      1.0  0.27798  0.62153  0.54739  1.0000
  H   H510      1.0  0.22629  0.61573  0.57266  1.0000
  H   H511      1.0  0.18131  0.64693  0.48914  1.0000
  H   H512      1.0  0.23308  0.65270  0.46382  1.0000
  C   C282      1.0  0.47122  0.59014  0.44195  1.0000
  H   H513      1.0  0.20938  0.51036  0.38091  1.0000
  H   H514      1.0  0.30258  0.95811  0.53512  1.0000
  H   H515      1.0  0.45669  0.62643  0.59772  1.0000
  H   H516      1.0  0.47423  0.60225  0.64741  1.0000
  C   C283      1.0  0.49784  0.90972  0.34031  1.0000
  C   C284      1.0  0.41074  0.54478  0.59881  1.0000
  H   H517      1.0  0.06044  0.72878  0.56923  1.0000
  H   H518      1.0  0.03461  0.73699  0.41585  1.0000
  C   C285      1.0  0.47039  0.75659  0.54193  1.0000
  C   C286      1.0  0.45898  0.72673  0.53459  1.0000
  H   H519      1.0  0.31666  0.98814  0.64021  1.0000
  H   H520      1.0  0.45472  0.77424  0.55067  1.0000
  H   H521      1.0  0.47320  0.55290  0.40815  1.0000
  C   C287      1.0  0.38041  0.67411  0.62752  1.0000
  H   H522      1.0  0.02628  0.79277  0.43025  1.0000
  C   C288      1.0  0.17209  0.54754  0.52234  1.0000
  H   H523      1.0  0.49346  0.96666  0.46820  1.0000
  H   H524      1.0  0.49786  0.92839  0.50169  1.0000
  C   C289      1.0  0.12462  0.96636  0.34449  1.0000
  C   C290      1.0  0.44935  0.90963  0.43794  1.0000
  C   C291      1.0  0.45964  0.88667  0.45872  1.0000
  H   H525      1.0  0.42891  0.63922  0.64074  1.0000
  C   C292      1.0  0.47100  0.92559  0.41971  1.0000
  H   H526      1.0  0.44297  0.87455  0.47314  1.0000
  C   C293      1.0  0.48851  0.61209  0.45903  1.0000
  H   H527      1.0  0.46320  0.94313  0.40356  1.0000
  H   H528      1.0  0.43755  0.54620  0.64130  1.0000
  C   C294      1.0  0.13644  0.93583  0.35986  1.0000
  S   S83       1.0  0.24514  0.96477  0.56837  1.0000
  H   H529      1.0  0.22873  0.54014  0.44372  1.0000
  H   H530      1.0  0.08801  0.53697  0.47482  1.0000
  N   N17       1.0  0.49530  0.99469  0.51018  1.0000
  C   C295      1.0  0.49007  0.65107  0.65493  1.0000
  C   C296      1.0  0.47938  0.70402  0.52344  1.0000
  H   H531      1.0  0.20902  0.50407  0.44010  1.0000
  H   H532      1.0  0.21047  0.54365  0.49122  1.0000
  H   H533      1.0  0.03139  0.94581  0.41743  1.0000
  H   H534      1.0  0.49261  0.86011  0.66685  1.0000
  H   H535      1.0  0.16384  0.53786  0.38408  1.0000
  H   H536      1.0  0.08359  0.95607  0.39489  1.0000
  H   H537      1.0  0.06363  0.75290  0.60356  1.0000
  H   H538      1.0  0.01414  0.89265  0.48590  1.0000
  H   H539      1.0  0.48890  0.59791  0.55642  1.0000
  H   H540      1.0  0.36733  0.80005  0.50892  1.0000
  C   C297      1.0  0.42981  0.80622  0.42306  1.0000
  C   C298      1.0  0.47185  0.78759  0.45668  1.0000
  H   H541      1.0  0.04436  0.94055  0.49974  1.0000
  H   H542      1.0  0.07512  0.97458  0.66709  1.0000
  C   C299      1.0  0.16449  0.94225  0.38090  1.0000
  C   C300      1.0  0.06348  0.95260  0.37895  1.0000
  H   H543      1.0  0.49933  0.86244  0.47773  1.0000
  H   H544      1.0  0.08087  0.96075  0.49423  1.0000
  C   C301      1.0  0.43729  0.74980  0.42877  1.0000
  N   N18       1.0  0.18006  0.54457  0.43152  1.0000
  H   H545      1.0  0.12417  0.98500  0.36273  1.0000
  H   H546      1.0  0.47689  0.62781  0.47489  1.0000
  H   H547      1.0  0.39452  0.77061  0.46664  1.0000
  C   C302      1.0  0.18578  0.57860  0.42445  1.0000
  C   C303      1.0  0.15779  0.60080  0.42937  1.0000
  C   C304      1.0  0.18693  0.55409  0.49075  1.0000
  C   C305      1.0  0.41126  0.99255  0.54469  1.0000
  C   C306      1.0  0.16550  0.63376  0.41817  1.0000
  H   H548      1.0  0.44941  0.75085  0.40592  1.0000
  C   C307      1.0  0.44636  0.99836  0.54499  1.0000
  H   H549      1.0  0.46837  0.66070  0.57826  1.0000
  H   H550      1.0  0.13374  0.54282  0.41149  1.0000
  H   H551      1.0  0.07715  0.91755  0.65749  1.0000
  C   C308      1.0  0.04258  0.99086  0.50729  1.0000
  H   H552      1.0  0.40453  0.82968  0.47590  1.0000
  C   C309      1.0  0.23621  0.99433  0.51223  1.0000
  H   H553      1.0  0.20563  0.58796  0.43848  1.0000
  H   H554      1.0  0.19302  0.58134  0.39977  1.0000
  H   H555      1.0  0.15144  0.60226  0.45436  1.0000
  H   H556      1.0  0.03656  0.98595  0.40626  1.0000
  H   H557      1.0  0.42333  0.68644  0.42071  1.0000
  H   H558      1.0  0.18944  0.57966  0.48841  1.0000
  H   H559      1.0  0.03978  0.82947  0.46374  1.0000
  H   H560      1.0  0.39007  0.78407  0.39892  1.0000
  H   H561      1.0  0.13713  0.59289  0.41603  1.0000
  H   H562      1.0  0.18563  0.64356  0.43122  1.0000
  H   H563      1.0  0.17097  0.63359  0.39290  1.0000
  H   H564      1.0  0.14512  0.64916  0.42182  1.0000
  C   C310      1.0  0.39844  0.51247  0.46499  1.0000
  C   C311      1.0  0.29701  0.98280  0.49180  1.0000
  C   C312      1.0  0.15687  0.53172  0.40826  1.0000
  H   H565      1.0  0.21276  0.99889  0.52001  1.0000
  C   C313      1.0  0.07722  0.52547  0.45517  1.0000
  H   H566      1.0  0.12668  0.88209  0.64847  1.0000
  N   N19       1.0  0.15769  0.73436  0.54924  1.0000
  C   C314      1.0  0.12259  0.73430  0.55027  1.0000
  C   C315      1.0  0.16801  0.72066  0.51848  1.0000
  C   C316      1.0  0.16914  0.71275  0.57454  1.0000
  C   C317      1.0  0.17170  0.76644  0.55450  1.0000
  C   C318      1.0  0.15242  0.79497  0.54341  1.0000
  C   C319      1.0  0.10797  0.74083  0.58267  1.0000
  C   C320      1.0  0.20470  0.70646  0.57518  1.0000
  C   C321      1.0  0.15704  0.73747  0.48863  1.0000
  C   C322      1.0  0.16708  0.71945  0.45953  1.0000
  C   C323      1.0  0.17136  0.82519  0.54579  1.0000
  C   C324      1.0  0.07339  0.74858  0.58003  1.0000
  H   H567      1.0  0.44400  0.80487  0.40148  1.0000
  H   H568      1.0  0.11345  0.71132  0.54221  1.0000
  H   H569      1.0  0.11266  0.75116  0.53350  1.0000
  H   H570      1.0  0.19382  0.72036  0.51687  1.0000
  H   H571      1.0  0.16026  0.69579  0.51681  1.0000
  H   H572      1.0  0.15705  0.68972  0.57282  1.0000
  H   H573      1.0  0.16320  0.72222  0.59794  1.0000
  H   H574      1.0  0.17608  0.77064  0.57977  1.0000
  H   H575      1.0  0.19510  0.76786  0.54345  1.0000
  H   H576      1.0  0.13149  0.79799  0.55818  1.0000
  H   H577      1.0  0.14433  0.79244  0.51907  1.0000
  H   H578      1.0  0.10995  0.71974  0.59752  1.0000
  H   H579      1.0  0.11998  0.76044  0.59471  1.0000
  H   H580      1.0  0.21816  0.72862  0.57513  1.0000
  H   H581      1.0  0.21181  0.69228  0.55476  1.0000
  H   H582      1.0  0.13136  0.73963  0.48767  1.0000
  H   H583      1.0  0.16796  0.76089  0.48722  1.0000
  H   H584      1.0  0.15940  0.73210  0.43837  1.0000
  H   H585      1.0  0.19281  0.71705  0.45882  1.0000
  H   H586      1.0  0.15633  0.69586  0.45916  1.0000
  H   H587      1.0  0.15672  0.84525  0.53863  1.0000
  H   H588      1.0  0.17919  0.82931  0.57016  1.0000
  H   H589      1.0  0.19197  0.82420  0.53026  1.0000
  H   H590      1.0  0.34475  0.97800  0.57497  1.0000
  H   H591      1.0  0.46067  0.51689  0.45484  1.0000
  C   C325      1.0  0.48028  0.69796  0.62350  1.0000
  C   C326      1.0  0.25653  0.97741  0.53111  1.0000
  H   H592      1.0  0.47326  0.81136  0.46707  1.0000
  C   C327      1.0  0.21393  0.68797  0.60410  1.0000
  H   H593      1.0  0.37720  0.68168  0.65207  1.0000
  C   C328      1.0  0.41789  0.77985  0.47324  1.0000
  C   C329      1.0  0.37176  0.90194  0.34428  1.0000
  H   H594      1.0  0.34305  0.93709  0.63342  1.0000
  N   N20       1.0  0.47109  0.66426  0.62846  1.0000
  C   C330      1.0  0.01798  0.77280  0.51465  1.0000
  C   C331      1.0  0.41380  0.68021  0.61687  1.0000
  H   H595      1.0  0.11844  0.92426  0.37412  1.0000
  H   H596      1.0  0.47831  0.77162  0.47597  1.0000
  C   C332      1.0  0.44783  0.69147  0.42743  1.0000
  H   H597      1.0  0.47459  0.72448  0.45383  1.0000
  H   H598      1.0  0.06992  0.76984  0.56574  1.0000
  C   C333      1.0  0.47414  0.64570  0.59858  1.0000
  H   H599      1.0  0.41265  0.74410  0.42296  1.0000
  H   H600      1.0  0.14891  0.55866  0.52386  1.0000
  H   H601      1.0  0.06653  0.95433  0.53304  1.0000
  C   C334      1.0  0.39830  0.52556  0.57546  1.0000
  S   S84       1.0  0.42395  0.00020  0.39411  1.0000
  H   H602      1.0  0.00419  0.67619  0.60089  1.0000
  H   H603      1.0  0.47076  0.68111  0.51726  1.0000
  C   C335      1.0  0.25622  0.50765  0.39767  1.0000
  C   C336      1.0  0.02833  0.87120  0.48856  1.0000
  H   H604      1.0  0.48276  0.89752  0.35732  1.0000
  C   C337      1.0  0.05951  0.95962  0.50871  1.0000
  H   H605      1.0  0.42678  0.76297  0.49052  1.0000
  H   H606      1.0  0.46933  0.93629  0.53120  1.0000
  H   H607      1.0  0.14382  0.91891  0.34172  1.0000
  C   C338      1.0  0.34437  0.97592  0.60068  1.0000
  H   H608      1.0  0.32081  0.93081  0.59798  1.0000
  H   H609      1.0  0.03746  0.99568  0.48241  1.0000
  H   H610      1.0  0.02488  0.83488  0.39632  1.0000
  C   C339      1.0  0.34252  0.94106  0.60788  1.0000
  C   C340      1.0  0.06604  0.54313  0.43023  1.0000
  H   H611      1.0  0.03592  0.86368  0.43983  1.0000
  H   H612      1.0  0.06128  0.92759  0.37276  1.0000
  C   C341      1.0  0.01464  0.94563  0.60327  1.0000
  H   H613      1.0  0.49864  0.88956  0.54369  1.0000
  H   H614      1.0  0.43348  0.91155  0.35195  1.0000
  H   H615      1.0  0.18380  0.95290  0.36739  1.0000
  H   H616      1.0  0.00394  0.96616  0.61320  1.0000
  C   C342      1.0  0.28684  0.97139  0.52070  1.0000
  C   C343      1.0  0.00419  0.88198  0.35890  1.0000
  H   H617      1.0  0.37460  0.64887  0.62539  1.0000
  H   H618      1.0  0.00200  0.70392  0.56926  1.0000
  C   C344      1.0  0.39058  0.80711  0.51796  1.0000
  C   C345      1.0  0.16695  0.54039  0.46378  1.0000
  H   H619      1.0  0.49849  0.76292  0.42015  1.0000
  H   H620      1.0  0.40351  0.83302  0.37024  1.0000
  H   H621      1.0  0.15796  0.95816  0.40032  1.0000
  H   H622      1.0  0.43599  0.71727  0.46839  1.0000
  H   H623      1.0  0.39217  0.85571  0.40401  1.0000
  C   C346      1.0  0.03441  0.96166  0.39725  1.0000
  N   N21       1.0  0.43921  0.78087  0.44542  1.0000
  C   C347      1.0  0.45574  0.50933  0.47909  1.0000
  C   C348      1.0  0.22484  0.52425  0.39643  1.0000
  H   H624      1.0  0.01656  0.97799  0.54853  1.0000
  H   H625      1.0  0.04487  0.97351  0.33679  1.0000
  C   C349      1.0  0.39532  0.80570  0.41228  1.0000
  C   C350      1.0  0.49149  0.87978  0.46134  1.0000
  H   H626      1.0  0.04473  0.54131  0.38486  1.0000
  H   H627      1.0  0.01342  0.95983  0.38225  1.0000
  H   H628      1.0  0.39888  0.78914  0.53457  1.0000
  C   C351      1.0  0.44988  0.72127  0.44704  1.0000
  H   H629      1.0  0.26579  0.50537  0.37376  1.0000
  C   C352      1.0  0.41363  0.81105  0.49120  1.0000
  C   C353      1.0  0.42787  0.53142  0.62320  1.0000
  H   H630      1.0  0.16383  0.51514  0.46891  1.0000
  H   H631      1.0  0.41624  0.67173  0.59255  1.0000
  H   H632      1.0  0.16966  0.52204  0.52621  1.0000
  C   C354      1.0  0.05268  0.52784  0.40456  1.0000
  H   H633      1.0  0.23921  0.68275  0.60331  1.0000
  H   H634      1.0  0.32040  0.97812  0.48402  1.0000
  C   C355      1.0  0.21078  0.52771  0.42954  1.0000
  H   H635      1.0  0.20903  0.70156  0.62561  1.0000
  H   H636      1.0  0.41723  0.70590  0.61733  1.0000
  H   H637      1.0  0.46227  0.69355  0.40613  1.0000
  H   H638      1.0  0.01543  0.53729  0.48669  1.0000
  H   H639      1.0  0.22873  0.54741  0.38565  1.0000
  H   H640      1.0  0.47546  0.71177  0.64503  1.0000
  H   H641      1.0  0.37233  0.87733  0.33610  1.0000
  H   H642      1.0  0.07062  0.99716  0.35906  1.0000
  C   C356      1.0  0.27677  0.99996  0.47299  1.0000
  H   H643      1.0  0.05298  0.87817  0.49230  1.0000
  H   H644      1.0  0.18697  0.55749  0.54114  1.0000
  C   C357      1.0  0.43739  0.66375  0.63860  1.0000
  C   C358      1.0  0.02134  0.74100  0.50736  1.0000
  H   H645      1.0  0.38814  0.82957  0.53071  1.0000
  H   H646      1.0  0.20099  0.66545  0.60485  1.0000
  C   C359      1.0  0.46025  0.99488  0.51186  1.0000
  H   H647      1.0  0.03764  0.53414  0.54580  1.0000
  H   H648      1.0  0.49395  0.80417  0.41348  1.0000
  H   H649      1.0  0.45651  0.67143  0.44122  1.0000
  H   H650      1.0  0.02035  0.85830  0.50949  1.0000
  C   C360      1.0  0.38838  0.83343  0.39117  1.0000
  S   S85       1.0  0.35296  0.97172  0.38686  1.0000
  H   H651      1.0  0.00145  0.77128  0.38219  1.0000
  C   C361      1.0  0.02560  0.85060  0.45951  1.0000
  H   H652      1.0  0.45275  0.53154  0.49234  1.0000
  H   H653      1.0  0.36402  0.68748  0.61271  1.0000
  C   C362      1.0  0.48650  0.56974  0.42158  1.0000
  H   H654      1.0  0.36269  0.92893  0.59724  1.0000
  C   C363      1.0  0.06739  0.97324  0.34970  1.0000
  H   H655      1.0  0.09780  0.53600  0.56064  1.0000
  H   H656      1.0  0.40619  0.96745  0.54037  1.0000
  H   H657      1.0  0.00870  0.66316  0.56129  1.0000
  H   H658      1.0  0.49978  0.55835  0.49378  1.0000
  H   H659      1.0  0.39602  0.53456  0.47827  1.0000
  H   H660      1.0  0.29475  0.98234  0.60602  1.0000
  C   C364      1.0  0.09851  0.51120  0.55312  1.0000
  H   H661      1.0  0.17289  0.92002  0.39107  1.0000
  H   H662      1.0  0.36663  0.98492  0.61039  1.0000
  H   H663      1.0  0.43496  0.67448  0.66218  1.0000
  C   C365      1.0  0.49769  0.78615  0.43156  1.0000
  C   C366      1.0  0.00975  0.89524  0.57810  1.0000
  H   H664      1.0  0.37880  0.90310  0.36918  1.0000
  H   H665      1.0  0.46598  0.70855  0.60470  1.0000
  C   C367      1.0  0.01190  0.98986  0.52606  1.0000
  H   H666      1.0  0.45872  0.95912  0.34893  1.0000
  H   H667      1.0  0.40411  0.51801  0.44038  1.0000
  C   C368      1.0  0.49456  0.93651  0.52590  1.0000
  S   S86       1.0  0.11530  0.00049  0.61450  1.0000
  C   C369      1.0  0.00897  0.73382  0.41434  1.0000
  H   H668      1.0  0.27312  0.52121  0.41203  1.0000
  C   C370      1.0  0.04090  0.50930  0.53868  1.0000
  H   H669      1.0  0.05034  0.51001  0.51466  1.0000
  H   H670      1.0  0.10464  0.50979  0.52803  1.0000
  H   H671      1.0  0.46797  0.50687  0.53803  1.0000
  H   H672      1.0  0.00384  0.71574  0.39640  1.0000
  C   C371      1.0  0.47936  0.61856  0.66695  1.0000
  Fe  Fe44      1.0  0.48085  0.90922  0.89426  1.0000
  S   S87       1.0  0.43199  0.92036  0.90955  1.0000
  H   H673      1.0  0.04278  0.89272  0.93379  1.0000
  C   C372      1.0  0.49413  0.91578  0.70703  1.0000
  H   H674      1.0  0.46106  0.65897  0.94307  1.0000
  S   S88       1.0  0.14748  0.95957  0.81565  1.0000
  Fe  Fe45      1.0  0.12317  0.96586  0.92913  1.0000
  Fe  Fe46      1.0  0.49986  0.57868  0.83118  1.0000
  S   S89       1.0  0.10259  0.92541  0.95544  1.0000
  C   C373      1.0  0.27268  0.84500  0.96626  1.0000
  C   C374      1.0  0.24749  0.93814  0.88382  1.0000
  H   H675      1.0  0.48304  0.96610  0.80939  1.0000
  H   H676      1.0  0.02559  0.89005  0.67323  1.0000
  S   S90       1.0  0.16675  0.95926  0.90153  1.0000
  C   C375      1.0  0.41181  0.65985  0.93614  1.0000
  C   C376      1.0  0.21689  0.99470  0.98949  1.0000
  C   C377      1.0  0.24156  0.99241  0.75717  1.0000
  C   C378      1.0  0.43426  0.89357  0.00030  1.0000
  S   S91       1.0  0.44347  0.55239  0.93340  1.0000
  H   H677      1.0  0.07089  0.99998  0.73431  1.0000
  H   H678      1.0  0.28469  0.96246  0.86147  1.0000
  C   C379      1.0  0.32212  0.97272  0.94161  1.0000
  H   H679      1.0  0.45576  0.94797  0.70112  1.0000
  S   S92       1.0  0.46198  0.60261  0.85800  1.0000
  Fe  Fe47      1.0  0.14153  0.98337  0.86264  1.0000
  C   C380      1.0  0.15135  0.97920  0.77984  1.0000
  C   C381      1.0  0.15831  0.96167  0.75307  1.0000
  C   C382      1.0  0.16236  0.97634  0.72413  1.0000
  H   H680      1.0  0.22452  0.92755  0.87812  1.0000
  H   H681      1.0  0.49540  0.58084  0.69639  1.0000
  S   S93       1.0  0.49494  0.88030  0.85251  1.0000
  H   H682      1.0  0.16104  0.93665  0.75485  1.0000
  H   H683      1.0  0.16849  0.96277  0.70378  1.0000
  H   H684      1.0  0.21666  0.96810  0.79337  1.0000
  S   S94       1.0  0.48068  0.68567  0.87874  1.0000
  H   H685      1.0  0.48506  0.87149  0.72998  1.0000
  C   C383      1.0  0.49240  0.97695  0.78871  1.0000
  C   C384      1.0  0.07774  0.97118  0.69268  1.0000
  H   H686      1.0  0.01264  0.89984  0.90509  1.0000
  C   C385      1.0  0.01088  0.93035  0.94593  1.0000
  C   C386      1.0  0.07112  0.93308  0.73583  1.0000
  H   H687      1.0  0.07562  0.89133  0.68939  1.0000
  H   H688      1.0  0.41227  0.51495  0.97849  1.0000
  C   C387      1.0  0.13372  0.88633  0.67302  1.0000
  H   H689      1.0  0.40904  0.68416  0.94476  1.0000
  H   H690      1.0  0.39066  0.64599  0.94171  1.0000
  S   S95       1.0  0.49141  0.56439  0.78092  1.0000
  H   H691      1.0  0.44409  0.90915  0.71260  1.0000
  H   H692      1.0  0.32692  0.98663  0.96302  1.0000
  S   S96       1.0  0.09644  0.98612  0.88906  1.0000
  C   C388      1.0  0.40266  0.93668  0.96355  1.0000
  C   C389      1.0  0.42528  0.91765  0.94992  1.0000
  H   H693      1.0  0.13216  0.96764  0.00021  1.0000
  H   H694      1.0  0.39041  0.95340  0.94936  1.0000
  H   H695      1.0  0.45810  0.88075  0.95801  1.0000
  H   H696      1.0  0.07499  0.90773  0.73997  1.0000
  H   H697      1.0  0.43365  0.53819  0.85312  1.0000
  H   H698      1.0  0.34259  0.97467  0.92600  1.0000
  H   H699      1.0  0.30157  0.98253  0.92938  1.0000
  H   H700      1.0  0.29169  0.83489  0.98047  1.0000
  H   H701      1.0  0.24972  0.83283  0.92242  1.0000
  H   H702      1.0  0.26377  0.80004  0.94441  1.0000
  C   C390      1.0  0.28620  0.93455  0.96907  1.0000
  H   H703      1.0  0.46037  0.74908  0.88144  1.0000
  H   H704      1.0  0.25052  0.84368  0.97933  1.0000
  H   H705      1.0  0.04508  0.92642  0.90905  1.0000
  C   C391      1.0  0.31654  0.93852  0.94996  1.0000
  C   C392      1.0  0.49507  0.52476  0.77061  1.0000
  Fe  Fe48      1.0  0.49924  0.63622  0.87381  1.0000
  C   C393      1.0  0.24088  0.98388  0.84714  1.0000
  H   H706      1.0  0.02007  0.63407  0.96309  1.0000
  H   H707      1.0  0.07622  0.95841  0.79638  1.0000
  H   H708      1.0  0.41444  0.66059  0.91040  1.0000
  C   C394      1.0  0.04213  0.62282  0.97043  1.0000
  H   H709      1.0  0.03665  0.96671  0.75491  1.0000
  C   C395      1.0  0.43792  0.64285  0.98657  1.0000
  H   H710      1.0  0.03744  0.99912  0.70853  1.0000
  H   H711      1.0  0.26707  0.94100  0.95304  1.0000
  H   H712      1.0  0.26552  0.88633  0.93791  1.0000
  H   H713      1.0  0.26136  0.93769  0.83620  1.0000
  C   C396      1.0  0.10535  0.92522  0.99627  1.0000
  C   C397      1.0  0.26064  0.95496  0.85543  1.0000
  H   H714      1.0  0.30466  0.87753  0.94654  1.0000
  H   H715      1.0  0.06532  0.91763  0.79835  1.0000
  H   H716      1.0  0.31492  0.92521  0.92776  1.0000
  H   H717      1.0  0.48450  0.67698  0.98772  1.0000
  C   C398      1.0  0.05691  0.94142  0.79267  1.0000
  C   C399      1.0  0.03157  0.93733  0.69236  1.0000
  C   C400      1.0  0.22061  0.90864  0.97908  1.0000
  H   H718      1.0  0.15946  0.88863  0.67386  1.0000
  H   H719      1.0  0.07982  0.88205  0.00002  1.0000
  H   H720      1.0  0.02829  0.94193  0.96132  1.0000
  H   H721      1.0  0.02257  0.89201  0.71506  1.0000
  H   H722      1.0  0.48850  0.79990  0.88326  1.0000
  C   C401      1.0  0.24053  0.97794  0.79027  1.0000
  H   H723      1.0  0.24476  0.95462  0.90365  1.0000
  N   N22       1.0  0.28086  0.90273  0.98313  1.0000
  H   H724      1.0  0.22499  0.94983  0.73437  1.0000
  C   C402      1.0  0.44121  0.89615  0.96842  1.0000
  N   N23       1.0  0.24831  0.99993  0.81678  1.0000
  H   H725      1.0  0.12634  0.91897  0.71010  1.0000
  H   H726      1.0  0.06203  0.63433  0.95857  1.0000
  Fe  Fe49      1.0  0.47659  0.57263  0.89797  1.0000
  H   H727      1.0  0.09316  0.94462  0.74350  1.0000
  H   H728      1.0  0.45779  0.62098  0.68097  1.0000
  C   C403      1.0  0.44067  0.64492  0.95047  1.0000
  C   C404      1.0  0.28111  0.87889  0.95720  1.0000
  H   H729      1.0  0.12826  0.93595  0.67175  1.0000
  H   H730      1.0  0.47887  0.59826  0.96857  1.0000
  N   N24       1.0  0.06547  0.93936  0.70162  1.0000
  H   H731      1.0  0.12673  0.86596  0.68734  1.0000
  H   H732      1.0  0.22047  0.93212  0.96840  1.0000
  H   H733      1.0  0.44284  0.62132  0.94005  1.0000
  C   C405      1.0  0.24399  0.96730  0.73190  1.0000
  H   H734      1.0  0.30484  0.96491  0.81366  1.0000
  C   C406      1.0  0.02882  0.91101  0.92202  1.0000
  H   H735      1.0  0.21921  0.89092  0.96023  1.0000
  H   H736      1.0  0.17039  0.90994  0.98286  1.0000
  H   H737      1.0  0.10306  0.97316  0.69747  1.0000
  C   C407      1.0  0.46190  0.92773  0.71597  1.0000
  C   C408      1.0  0.11890  0.91621  0.68554  1.0000
  H   H738      1.0  0.41800  0.62679  0.99090  1.0000
  H   H739      1.0  0.48954  0.66729  0.67532  1.0000
  H   H740      1.0  0.39636  0.54034  0.83411  1.0000
  H   H741      1.0  0.29098  0.82426  0.92356  1.0000
  C   C409      1.0  0.48598  0.51497  0.74072  1.0000
  C   C410      1.0  0.06317  0.99953  0.70960  1.0000
  H   H742      1.0  0.26354  0.91922  0.89085  1.0000
  H   H743      1.0  0.21578  0.97697  0.84758  1.0000
  H   H744      1.0  0.28617  0.95258  0.98777  1.0000
  C   C411      1.0  0.04520  0.94280  0.75903  1.0000
  C   C412      1.0  0.01681  0.90424  0.69307  1.0000
  H   H745      1.0  0.43379  0.51028  0.80247  1.0000
  H   H746      1.0  0.00388  0.89190  0.97657  1.0000
  C   C413      1.0  0.26910  0.82438  0.93731  1.0000
  C   C414      1.0  0.47548  0.99540  0.98052  1.0000
  H   H747      1.0  0.25590  0.95726  0.79036  1.0000
  H   H748      1.0  0.33703  0.93014  0.96306  1.0000
  C   C415      1.0  0.47308  0.59892  0.99355  1.0000
  C   C416      1.0  0.43759  0.51178  0.93535  1.0000
  H   H749      1.0  0.19417  0.98840  0.98058  1.0000
  H   H750      1.0  0.04131  0.59792  0.96310  1.0000
  C   C417      1.0  0.41306  0.52434  0.84557  1.0000
  H   H751      1.0  0.24425  0.00006  0.86713  1.0000
  H   H752      1.0  0.24190  0.97819  0.70856  1.0000
  H   H753      1.0  0.49350  0.90892  0.68222  1.0000
  H   H754      1.0  0.35674  0.98435  0.79916  1.0000
  C   C418      1.0  0.08294  0.91531  0.68267  1.0000
  C   C419      1.0  0.48554  0.74948  0.88101  1.0000
  H   H755      1.0  0.47727  0.97395  0.96598  1.0000
  C   C420      1.0  0.49343  0.65356  0.99454  1.0000
  C   C421      1.0  0.39593  0.93432  0.99543  1.0000
  H   H756      1.0  0.46171  0.93561  0.74066  1.0000
  H   H757      1.0  0.02498  0.92670  0.75693  1.0000
  H   H758      1.0  0.48414  0.53577  0.99495  1.0000
  H   H759      1.0  0.45174  0.58422  0.99530  1.0000
  H   H760      1.0  0.47656  0.53171  0.72448  1.0000
  H   H761      1.0  0.40210  0.51411  0.86662  1.0000
  H   H762      1.0  0.26677  0.95526  0.73338  1.0000
  H   H763      1.0  0.03775  0.94745  0.80890  1.0000
  H   H764      1.0  0.01696  0.95288  0.70683  1.0000
  C   C422      1.0  0.30654  0.98838  0.80323  1.0000
  C   C423      1.0  0.33946  0.00071  0.80927  1.0000
  H   H765      1.0  0.30384  0.98552  0.77767  1.0000
  H   H766      1.0  0.42510  0.99892  0.97530  1.0000
  C   C424      1.0  0.47646  0.00163  0.77444  1.0000
  H   H767      1.0  0.32778  0.88693  0.99367  1.0000
  H   H768      1.0  0.43080  0.66624  0.99547  1.0000
  C   C425      1.0  0.24992  0.90384  0.99980  1.0000
  C   C426      1.0  0.19078  0.90570  0.99818  1.0000
  H   H769      1.0  0.02842  0.94609  0.66818  1.0000
  C   C427      1.0  0.53633  0.48356  0.29853  1.0000
  H   H770      1.0  0.90406  0.06274  0.26186  1.0000
  S   S97       1.0  0.59844  0.15799  0.07268  1.0000
  H   H771      1.0  0.85609  0.49031  0.06112  1.0000
  C   C428      1.0  0.87936  0.41691  0.32694  1.0000
  S   S98       1.0  0.62825  0.48917  0.06401  1.0000
  H   H772      1.0  0.52522  0.40515  0.22870  1.0000
  S   S99       1.0  0.54838  0.08319  0.09332  1.0000
  H   H773      1.0  0.97414  0.46465  0.07294  1.0000
  Fe  Fe50      1.0  0.91344  0.09510  0.04380  1.0000
  S   S100      1.0  0.93660  0.07310  0.08581  1.0000
  S   S101      1.0  0.87970  0.13560  0.04202  1.0000
  C   C429      1.0  0.51488  0.42440  0.21481  1.0000
  H   H774      1.0  0.60018  0.43159  0.02898  1.0000
  Fe  Fe51      1.0  0.60370  0.46629  0.10399  1.0000
  S   S102      1.0  0.58141  0.41940  0.09401  1.0000
  H   H775      1.0  0.50931  0.44250  0.03503  1.0000
  S   S103      1.0  0.64376  0.47145  0.13760  1.0000
  C   C430      1.0  0.95627  0.33879  0.03320  1.0000
  H   H776      1.0  0.65332  0.04725  0.06028  1.0000
  S   S104      1.0  0.94772  0.11748  0.01132  1.0000
  H   H777      1.0  0.93572  0.33894  0.01761  1.0000
  H   H778      1.0  0.51801  0.02293  0.02426  1.0000
  H   H779      1.0  0.88869  0.28506  0.06336  1.0000
  C   C431      1.0  0.96071  0.06233  0.17410  1.0000
  C   C432      1.0  0.63088  0.47610  0.26585  1.0000
  H   H780      1.0  0.54246  0.01202  0.07346  1.0000
  Fe  Fe52      1.0  0.66640  0.49785  0.09863  1.0000
  H   H781      1.0  0.53274  0.17386  0.15601  1.0000
  H   H782      1.0  0.63739  0.45180  0.26751  1.0000
  C   C433      1.0  0.52333  0.44299  0.10687  1.0000
  C   C434      1.0  0.54049  0.41860  0.09387  1.0000
  C   C435      1.0  0.52485  0.39296  0.08075  1.0000
  H   H783      1.0  0.53506  0.46274  0.11718  1.0000
  H   H784      1.0  0.53788  0.37395  0.07093  1.0000
  H   H785      1.0  0.54621  0.14189  0.13189  1.0000
  C   C436      1.0  0.72498  0.47633  0.05047  1.0000
  C   C437      1.0  0.66341  0.39692  0.09726  1.0000
  H   H786      1.0  0.99695  0.09651  0.18495  1.0000
  H   H787      1.0  0.94957  0.39357  0.00846  1.0000
  H   H788      1.0  0.65806  0.04623  0.00271  1.0000
  H   H789      1.0  0.94263  0.07684  0.21858  1.0000
  H   H790      1.0  0.63538  0.47750  0.21568  1.0000
  S   S105      1.0  0.62480  0.47346  0.32935  1.0000
  C   C438      1.0  0.94089  0.03208  0.08699  1.0000
  H   H791      1.0  0.96535  0.05037  0.00312  1.0000
  H   H792      1.0  0.56963  0.04632  0.03336  1.0000
  H   H793      1.0  0.95438  0.01184  0.25596  1.0000
  H   H794      1.0  0.89986  0.02117  0.06015  1.0000
  H   H795      1.0  0.63727  0.22074  0.05441  1.0000
  H   H796      1.0  0.85234  0.30639  0.06205  1.0000
  C   C439      1.0  0.99213  0.31422  0.24718  1.0000
  C   C440      1.0  0.99248  0.34929  0.23799  1.0000
  H   H797      1.0  0.95824  0.40219  0.10450  1.0000
  C   C441      1.0  0.75957  0.46869  0.00622  1.0000
  S   S106      1.0  0.60983  0.09874  0.02691  1.0000
  H   H798      1.0  0.74664  0.14107  0.07628  1.0000
  H   H799      1.0  0.50941  0.08572  0.03793  1.0000
  C   C442      1.0  0.66765  0.36871  0.07578  1.0000
  H   H800      1.0  0.54971  0.35464  0.00770  1.0000
  H   H801      1.0  0.95555  0.43531  0.23106  1.0000
  C   C443      1.0  0.50953  0.07183  0.08599  1.0000
  H   H802      1.0  0.68802  0.04686  0.08393  1.0000
  H   H803      1.0  0.97741  0.33642  0.01878  1.0000
  C   C444      1.0  0.63646  0.35953  0.05974  1.0000
  H   H804      1.0  0.57559  0.33956  0.05846  1.0000
  C   C445      1.0  0.91949  0.01180  0.07276  1.0000
  H   H805      1.0  0.52062  0.28218  0.06638  1.0000
  C   C446      1.0  0.99222  0.43114  0.12666  1.0000
  C   C447      1.0  0.98685  0.45946  0.00624  1.0000
  H   H806      1.0  0.91149  0.45227  0.06391  1.0000
  H   H807      1.0  0.61706  0.24482  0.08211  1.0000
  H   H808      1.0  0.61693  0.26751  0.02869  1.0000
  H   H809      1.0  0.79536  0.12423  0.05009  1.0000
  C   C448      1.0  0.87632  0.30502  0.05256  1.0000
  C   C449      1.0  0.96492  0.42711  0.10416  1.0000
  N   N25       1.0  0.93156  0.02755  0.21405  1.0000
  H   H810      1.0  0.89888  0.02419  0.30555  1.0000
  N   N26       1.0  0.63708  0.33066  0.03931  1.0000
  H   H811      1.0  0.83120  0.44609  0.11193  1.0000
  H   H812      1.0  0.86398  0.32209  0.00714  1.0000
  C   C450      1.0  0.63912  0.30239  0.06007  1.0000
  H   H813      1.0  0.90549  0.34684  0.32053  1.0000
  C   C451      1.0  0.81900  0.49384  0.12338  1.0000
  C   C452      1.0  0.51659  0.17523  0.10773  1.0000
  C   C453      1.0  0.63803  0.27014  0.04338  1.0000
  H   H814      1.0  0.83688  0.04953  0.19512  1.0000
  H   H815      1.0  0.65924  0.24420  0.08161  1.0000
  H   H816      1.0  0.98499  0.42448  0.15054  1.0000
  H   H817      1.0  0.94510  0.44094  0.11340  1.0000
  C   C454      1.0  0.57712  0.32423  0.03778  1.0000
  C   C455      1.0  0.87128  0.01921  0.21686  1.0000
  H   H818      1.0  0.96979  0.01724  0.02850  1.0000
  H   H819      1.0  0.56277  0.18037  0.12770  1.0000
  H   H820      1.0  0.97402  0.30237  0.23267  1.0000
  H   H821      1.0  0.62028  0.30278  0.07785  1.0000
  H   H822      1.0  0.66116  0.30288  0.07366  1.0000
  C   C456      1.0  0.57950  0.02442  0.04281  1.0000
  H   H823      1.0  0.68556  0.37521  0.05838  1.0000
  H   H824      1.0  0.89092  0.43577  0.01253  1.0000
  C   C457      1.0  0.71833  0.13793  0.03486  1.0000
  C   C458      1.0  0.60785  0.32986  0.01980  1.0000
  H   H825      1.0  0.95424  0.34563  0.28729  1.0000
  H   H826      1.0  0.65877  0.26685  0.02843  1.0000
  H   H827      1.0  0.51762  0.49059  0.31487  1.0000
  C   C459      1.0  0.87550  0.30127  0.01716  1.0000
  H   H828      1.0  0.54619  0.41661  0.01084  1.0000
  S   S107      1.0  0.96916  0.41346  0.29285  1.0000
  C   C460      1.0  0.66474  0.33097  0.01777  1.0000
  C   C461      1.0  0.68397  0.04773  0.00240  1.0000
  H   H829      1.0  0.89955  0.41029  0.31224  1.0000
  C   C462      1.0  0.60588  0.43637  0.00426  1.0000
  H   H830      1.0  0.86271  0.39482  0.06415  1.0000
  C   C463      1.0  0.96606  0.01954  0.10342  1.0000
  H   H831      1.0  0.91466  0.00250  0.25474  1.0000
  C   C464      1.0  0.86160  0.41310  0.04593  1.0000
  H   H832      1.0  0.68109  0.45220  0.04760  1.0000
  H   H833      1.0  0.91036  0.46711  0.30499  1.0000
  H   H834      1.0  0.59393  0.03029  0.06353  1.0000
  C   C465      1.0  0.71831  0.13145  0.00294  1.0000
  C   C466      1.0  0.62403  0.49297  0.29314  1.0000
  H   H835      1.0  0.66426  0.31018  0.00218  1.0000
  H   H836      1.0  0.57559  0.29971  0.04588  1.0000
  C   C467      1.0  0.56551  0.44348  0.19383  1.0000
  C   C468      1.0  0.58204  0.41257  0.20271  1.0000
  H   H837      1.0  0.89512  0.06068  0.20259  1.0000
  H   H838      1.0  0.68681  0.32889  0.03125  1.0000
  H   H839      1.0  0.85831  0.41888  0.31204  1.0000
  S   S108      1.0  0.55713  0.23077  0.04485  1.0000
  C   C469      1.0  0.61139  0.40764  0.18338  1.0000
  C   C470      1.0  0.51911  0.24269  0.03517  1.0000
  H   H840      1.0  0.99192  0.26714  0.31160  1.0000
  Fe  Fe53      1.0  0.63429  0.14404  0.03731  1.0000
  H   H841      1.0  0.72107  0.04392  0.03765  1.0000
  H   H842      1.0  0.50889  0.49196  0.25780  1.0000
  H   H843      1.0  0.96573  0.48579  0.20433  1.0000
  C   C471      1.0  0.54767  0.46036  0.24531  1.0000
  H   H844      1.0  0.55982  0.44235  0.16853  1.0000
  H   H845      1.0  0.58326  0.46236  0.19576  1.0000
  H   H846      1.0  0.56663  0.39215  0.19843  1.0000
  H   H847      1.0  0.58913  0.41260  0.22754  1.0000
  Fe  Fe54      1.0  0.57170  0.11519  0.05848  1.0000
  C   C472      1.0  0.92476  0.04970  0.26999  1.0000
  S   S109      1.0  0.88868  0.06757  0.00677  1.0000
  C   C473      1.0  0.86579  0.50233  0.01368  1.0000
  H   H848      1.0  0.98655  0.39832  0.02500  1.0000
  C   C474      1.0  0.70284  0.45707  0.03611  1.0000
  H   H849      1.0  0.68057  0.07954  0.05888  1.0000
  H   H850      1.0  0.62881  0.42613  0.18865  1.0000
  H   H851      1.0  0.62184  0.38472  0.18914  1.0000
  H   H852      1.0  0.60579  0.40785  0.15813  1.0000
  H   H853      1.0  0.61909  0.35676  0.07873  1.0000
  H   H854      1.0  0.85318  0.43518  0.05641  1.0000
  C   C475      1.0  0.96142  0.39784  0.03115  1.0000
  H   H855      1.0  0.79129  0.45103  0.12397  1.0000
  C   C476      1.0  0.96756  0.45390  0.24332  1.0000
  H   H856      1.0  0.84459  0.40541  0.02793  1.0000
  C   C477      1.0  0.95710  0.36891  0.05228  1.0000
  H   H857      1.0  0.95889  0.11307  0.17759  1.0000
  H   H858      1.0  0.55854  0.44006  0.25704  1.0000
  H   H859      1.0  0.77058  0.49700  0.04635  1.0000
  C   C478      1.0  0.77405  0.12638  0.03683  1.0000
  Fe  Fe55      1.0  0.85763  0.10956  0.00178  1.0000
  H   H860      1.0  0.97691  0.36750  0.06891  1.0000
  H   H861      1.0  0.87020  0.47552  0.30492  1.0000
  H   H862      1.0  0.98311  0.03503  0.11372  1.0000
  H   H863      1.0  0.98354  0.34107  0.18853  1.0000
  H   H864      1.0  0.00016  0.45580  0.12721  1.0000
  H   H865      1.0  0.88885  0.32691  0.05881  1.0000
  H   H866      1.0  0.93515  0.36941  0.06560  1.0000
  C   C479      1.0  0.67835  0.05380  0.06098  1.0000
  C   C480      1.0  0.62958  0.49052  0.23646  1.0000
  H   H867      1.0  0.94431  0.47573  0.02770  1.0000
  H   H868      1.0  0.51056  0.20584  0.00210  1.0000
  H   H869      1.0  0.89388  0.30706  0.31158  1.0000
  H   H870      1.0  0.64714  0.39123  0.11650  1.0000
  H   H871      1.0  0.87388  0.25093  0.01466  1.0000
  H   H872      1.0  0.94520  0.28790  0.32911  1.0000
  H   H873      1.0  0.98176  0.09836  0.14571  1.0000
  C   C481      1.0  0.97937  0.02923  0.00779  1.0000
  H   H874      1.0  0.94038  0.02727  0.31276  1.0000
  S   S110      1.0  0.54456  0.14024  0.02188  1.0000
  C   C482      1.0  0.81062  0.46159  0.11042  1.0000
  H   H875      1.0  0.52588  0.16807  0.08473  1.0000
  H   H876      1.0  0.68617  0.40390  0.10752  1.0000
  C   C483      1.0  0.96093  0.22143  0.00649  1.0000
  N   N27       1.0  0.98649  0.30718  0.28118  1.0000
  H   H877      1.0  0.51409  0.20095  0.10788  1.0000
  H   H878      1.0  0.94628  0.00381  0.17179  1.0000
  C   C484      1.0  0.50689  0.26954  0.04931  1.0000
  C   C485      1.0  0.95283  0.05520  0.20853  1.0000
  C   C486      1.0  0.75342  0.48199  0.03553  1.0000
  H   H879      1.0  0.91478  0.41353  0.07610  1.0000
  H   H880      1.0  0.97795  0.04507  0.16569  1.0000
  C   C487      1.0  0.52057  0.47842  0.19732  1.0000
  S   S111      1.0  0.68413  0.14930  0.05468  1.0000
  H   H881      1.0  0.66471  0.38186  0.00847  1.0000
  H   H882      1.0  0.93968  0.06123  0.15907  1.0000
  N   N28       1.0  0.95155  0.42883  0.04466  1.0000
  C   C488      1.0  0.91809  0.42855  0.05550  1.0000
  C   C489      1.0  0.97315  0.43866  0.07092  1.0000
  C   C490      1.0  0.95379  0.45303  0.01925  1.0000
  H   H883      1.0  0.52720  0.32851  0.03100  1.0000
  Fe  Fe56      1.0  0.57406  0.18198  0.03331  1.0000
  C   C491      1.0  0.89351  0.41792  0.03099  1.0000
  H   H884      1.0  0.67678  0.34928  0.09004  1.0000
  H   H885      1.0  0.89880  0.02961  0.17574  1.0000
  H   H886      1.0  0.94500  0.06594  0.27011  1.0000
  C   C492      1.0  0.89970  0.03512  0.20114  1.0000
  C   C493      1.0  0.63792  0.24349  0.06694  1.0000
  C   C494      1.0  0.74639  0.13580  0.05162  1.0000
  C   C495      1.0  0.50109  0.22628  0.01343  1.0000
  H   H887      1.0  0.80349  0.46330  0.08560  1.0000
  C   C496      1.0  0.77383  0.11911  0.00507  1.0000
  H   H888      1.0  0.93700  0.31063  0.27256  1.0000
  C   C497      1.0  0.97717  0.44939  0.27429  1.0000
  H   H889      1.0  0.96932  0.36006  0.24143  1.0000
  C   C498      1.0  0.91958  0.03968  0.30372  1.0000
  H   H890      1.0  0.97539  0.05185  0.22077  1.0000
  H   H891      1.0  0.97890  0.17873  0.02544  1.0000
  S   S112      1.0  0.71738  0.49373  0.08685  1.0000
  C   C499      1.0  0.98425  0.20245  0.01880  1.0000
  N   N29       1.0  0.53711  0.45165  0.21284  1.0000
  H   H892      1.0  0.82767  0.49080  0.14757  1.0000
  H   H893      1.0  0.96214  0.26254  0.28340  1.0000
  C   C500      1.0  0.90896  0.32193  0.32662  1.0000
  C   C501      1.0  0.84160  0.02421  0.19788  1.0000
  H   H894      1.0  0.50547  0.45313  0.27336  1.0000
  H   H895      1.0  0.82250  0.21780  0.01259  1.0000
  C   C502      1.0  0.94309  0.31286  0.32279  1.0000
  C   C503      1.0  0.99280  0.47351  0.28989  1.0000
  H   H896      1.0  0.83739  0.26886  0.02174  1.0000
  H   H897      1.0  0.84374  0.01322  0.17449  1.0000
  C   C504      1.0  0.93143  0.02118  0.24864  1.0000
  C   C505      1.0  0.54097  0.16725  0.13240  1.0000
  C   C506      1.0  0.97333  0.48244  0.22811  1.0000
  C   C507      1.0  0.69617  0.03744  0.03487  1.0000
  C   C508      1.0  0.89094  0.47461  0.32045  1.0000
  H   H898      1.0  0.62825  0.38021  0.04648  1.0000
  H   H899      1.0  0.95463  0.31830  0.04887  1.0000
  H   H900      1.0  0.89989  0.39545  0.01990  1.0000
  H   H901      1.0  0.60520  0.35236  0.00723  1.0000
  H   H902      1.0  0.65407  0.41707  0.08408  1.0000
  H   H903      1.0  0.86738  0.02934  0.24036  1.0000
  C   C509      1.0  0.97552  0.09460  0.17052  1.0000
  C   C510      1.0  0.95472  0.31977  0.28932  1.0000
  Fe  Fe57      1.0  0.91240  0.15538  0.00609  1.0000
  H   H904      1.0  0.56639  0.47833  0.24443  1.0000
  C   C511      1.0  0.98605  0.27224  0.28681  1.0000
  C   C512      1.0  0.52206  0.47221  0.26781  1.0000
  C   C513      1.0  0.50328  0.41113  0.18309  1.0000
  C   C514      1.0  0.54883  0.33059  0.01711  1.0000
  H   H905      1.0  0.51596  0.47276  0.17241  1.0000
  H   H906      1.0  0.99728  0.25049  0.24189  1.0000
  H   H907      1.0  0.89997  0.30059  0.00910  1.0000
  H   H908      1.0  0.52276  0.40530  0.16727  1.0000
  C   C515      1.0  0.85875  0.27065  0.00726  1.0000
  H   H909      1.0  0.55027  0.46483  0.30962  1.0000
  H   H910      1.0  0.84561  0.49023  0.00480  1.0000
  H   H911      1.0  0.98509  0.20777  0.28006  1.0000
  H   H912      1.0  0.94708  0.49625  0.33043  1.0000
  H   H913      1.0  0.91571  0.06060  0.31858  1.0000
  H   H914      1.0  0.82153  0.01334  0.21003  1.0000
  H   H915      1.0  0.62469  0.45422  0.00347  1.0000
  C   C516      1.0  0.70900  0.44372  0.00691  1.0000
  H   H916      1.0  0.59459  0.01331  0.02510  1.0000
  H   H917      1.0  0.99749  0.43138  0.06572  1.0000
  C   C517      1.0  0.99864  0.26406  0.00197  1.0000
  C   C518      1.0  0.99859  0.50197  0.27471  1.0000
  H   H918      1.0  0.00065  0.47023  0.31358  1.0000
  H   H919      1.0  0.69371  0.01195  0.03846  1.0000
  H   H920      1.0  0.50240  0.05451  0.13247  1.0000
  H   H921      1.0  0.00041  0.37862  0.19771  1.0000
  C   C519      1.0  0.00072  0.35339  0.20362  1.0000
  H   H922      1.0  0.83918  0.39152  0.46442  1.0000
  H   H923      1.0  0.84930  0.44521  0.45508  1.0000
  S   S113      1.0  0.97969  0.10415  0.34364  1.0000
  H   H924      1.0  0.70739  0.41917  0.42713  1.0000
  C   C520      1.0  0.98674  0.44243  0.51157  1.0000
  S   S114      1.0  0.56364  0.03207  0.60128  1.0000
  C   C521      1.0  0.58767  0.33285  0.60628  1.0000
  S   S115      1.0  0.53599  0.17154  0.65394  1.0000
  S   S116      1.0  0.57384  0.42507  0.61273  1.0000
  Fe  Fe58      1.0  0.59987  0.47950  0.44253  1.0000
  H   H925      1.0  0.97664  0.01607  0.48558  1.0000
  S   S117      1.0  0.57345  0.44074  0.46626  1.0000
  H   H926      1.0  0.61269  0.36783  0.63154  1.0000
  H   H927      1.0  0.87529  0.39809  0.34419  1.0000
  H   H928      1.0  0.65622  0.43213  0.49091  1.0000
  H   H929      1.0  0.51829  0.46247  0.59216  1.0000
  H   H930      1.0  0.69790  0.43814  0.59314  1.0000
  S   S118      1.0  0.64335  0.46912  0.41579  1.0000
  C   C522      1.0  0.61822  0.34959  0.61406  1.0000
  Fe  Fe59      1.0  0.94920  0.42175  0.40827  1.0000
  S   S119      1.0  0.91459  0.45341  0.43183  1.0000
  S   S120      1.0  0.93990  0.38545  0.37175  1.0000
  H   H931      1.0  0.51291  0.45081  0.53516  1.0000
  H   H932      1.0  0.72829  0.38951  0.60299  1.0000
  S   S121      1.0  0.88246  0.42674  0.57311  1.0000
  C   C523      1.0  0.78049  0.41274  0.55437  1.0000
  H   H933      1.0  0.68132  0.33518  0.59958  1.0000
  H   H934      1.0  0.50723  0.19187  0.52986  1.0000
  H   H935      1.0  0.94761  0.24149  0.40382  1.0000
  H   H936      1.0  0.79943  0.49129  0.50330  1.0000
  H   H937      1.0  0.96904  0.45009  0.57350  1.0000
  C   C524      1.0  0.72062  0.43957  0.43629  1.0000
  C   C525      1.0  0.98512  0.03493  0.50145  1.0000
  N   N30       1.0  0.66361  0.38130  0.58894  1.0000
  S   S122      1.0  0.94435  0.05471  0.41651  1.0000
  H   H938      1.0  0.89107  0.48452  0.53892  1.0000
  C   C526      1.0  0.84572  0.39441  0.41504  1.0000
  H   H939      1.0  0.90680  0.44454  0.35873  1.0000
  S   S123      1.0  0.50794  0.10048  0.60544  1.0000
  H   H940      1.0  0.80466  0.41199  0.56367  1.0000
  H   H941      1.0  0.95858  0.03782  0.56039  1.0000
  C   C527      1.0  0.96755  0.47538  0.57886  1.0000
  H   H942      1.0  0.75381  0.43631  0.51937  1.0000
  H   H943      1.0  0.96429  0.04989  0.50534  1.0000
  S   S124      1.0  0.98365  0.39206  0.43330  1.0000
  C   C528      1.0  0.90961  0.44602  0.47185  1.0000
  C   C529      1.0  0.90293  0.47082  0.49209  1.0000
  C   C530      1.0  0.89584  0.46515  0.52348  1.0000
  C   C531      1.0  0.89450  0.43454  0.53465  1.0000
  C   C532      1.0  0.90198  0.40978  0.51457  1.0000
  C   C533      1.0  0.90959  0.41549  0.48325  1.0000
  H   H944      1.0  0.54488  0.17339  0.58779  1.0000
  Fe  Fe60      1.0  0.79554  0.49921  0.60280  1.0000
  H   H945      1.0  0.90129  0.38606  0.52311  1.0000
  H   H946      1.0  0.91456  0.39618  0.46775  1.0000
  H   H947      1.0  0.68049  0.36697  0.54379  1.0000
  H   H948      1.0  0.67475  0.39452  0.49195  1.0000
  C   C534      1.0  0.70502  0.49310  0.54040  1.0000
  H   H949      1.0  0.63617  0.34462  0.56712  1.0000
  H   H950      1.0  0.94835  0.48601  0.56532  1.0000
  H   H951      1.0  0.63221  0.01349  0.52536  1.0000
  H   H952      1.0  0.96432  0.49867  0.51831  1.0000
  H   H953      1.0  0.90195  0.31851  0.35128  1.0000
  H   H954      1.0  0.55788  0.23351  0.64052  1.0000
  C   C535      1.0  0.81625  0.48005  0.48739  1.0000
  S   S125      1.0  0.83134  0.49863  0.56528  1.0000
  C   C536      1.0  0.57356  0.42980  0.57207  1.0000
  C   C537      1.0  0.58993  0.45468  0.55855  1.0000
  C   C538      1.0  0.59031  0.45831  0.52601  1.0000
  C   C539      1.0  0.57476  0.43670  0.50695  1.0000
  C   C540      1.0  0.55900  0.41151  0.52051  1.0000
  C   C541      1.0  0.55808  0.40826  0.55298  1.0000
  H   H955      1.0  0.60213  0.47130  0.57323  1.0000
  H   H956      1.0  0.60265  0.47771  0.51570  1.0000
  H   H957      1.0  0.54690  0.39478  0.50585  1.0000
  H   H958      1.0  0.54551  0.38896  0.56317  1.0000
  H   H959      1.0  0.93753  0.46436  0.61775  1.0000
  H   H960      1.0  0.64709  0.03606  0.55796  1.0000
  H   H961      1.0  0.79288  0.40379  0.49259  1.0000
  C   C542      1.0  0.54247  0.03221  0.51649  1.0000
  Fe  Fe61      1.0  0.62156  0.49685  0.37704  1.0000
  H   H962      1.0  0.50249  0.03779  0.46091  1.0000
  S   S126      1.0  0.74461  0.49191  0.59070  1.0000
  H   H963      1.0  0.72236  0.45730  0.41753  1.0000
  C   C543      1.0  0.95917  0.47788  0.61333  1.0000
  C   C544      1.0  0.82503  0.43821  0.44937  1.0000
  C   C545      1.0  0.74051  0.34589  0.62366  1.0000
  H   H964      1.0  0.63830  0.42413  0.59635  1.0000
  C   C546      1.0  0.96816  0.01511  0.55211  1.0000
  S   S127      1.0  0.98427  0.44708  0.37934  1.0000
  H   H965      1.0  0.53142  0.28509  0.63832  1.0000
  H   H966      1.0  0.59155  0.31371  0.58921  1.0000
  C   C547      1.0  0.51660  0.20794  0.65341  1.0000
  H   H967      1.0  0.53289  0.49473  0.49256  1.0000
  H   H968      1.0  0.61526  0.37957  0.57432  1.0000
  H   H969      1.0  0.76565  0.34921  0.61858  1.0000
  Fe  Fe62      1.0  0.97826  0.40836  0.34468  1.0000
  C   C548      1.0  0.82707  0.40235  0.44427  1.0000
  C   C549      1.0  0.77830  0.43601  0.52763  1.0000
  C   C550      1.0  0.53333  0.23512  0.64574  1.0000
  H   H970      1.0  0.82435  0.42340  0.51094  1.0000
  H   H971      1.0  0.77364  0.47445  0.44125  1.0000
  H   H972      1.0  0.76494  0.42039  0.57353  1.0000
  C   C551      1.0  0.67343  0.46292  0.62880  1.0000
  H   H973      1.0  0.93139  0.48933  0.36778  1.0000
  S   S128      1.0  0.96567  0.30595  0.40219  1.0000
  C   C552      1.0  0.53993  0.17334  0.56242  1.0000
  H   H974      1.0  0.53758  0.14883  0.55416  1.0000
  Fe  Fe63      1.0  0.97788  0.35728  0.39415  1.0000
  H   H975      1.0  0.51427  0.21614  0.56346  1.0000
  C   C553      1.0  0.68471  0.43233  0.61446  1.0000
  C   C554      1.0  0.67629  0.38898  0.55705  1.0000
  N   N31       1.0  0.99633  0.02081  0.53176  1.0000
  H   H976      1.0  0.57644  0.06921  0.52374  1.0000
  H   H977      1.0  0.77337  0.38904  0.54652  1.0000
  C   C555      1.0  0.65583  0.41037  0.53640  1.0000
  H   H978      1.0  0.69929  0.40073  0.55865  1.0000
  S   S129      1.0  0.82056  0.46424  0.63277  1.0000
  H   H979      1.0  0.69415  0.42845  0.50850  1.0000
  C   C556      1.0  0.80071  0.42711  0.50073  1.0000
  H   H980      1.0  0.68131  0.36143  0.63176  1.0000
  C   C557      1.0  0.75301  0.42938  0.44684  1.0000
  C   C558      1.0  0.67134  0.41664  0.50506  1.0000
  H   H981      1.0  0.76501  0.42005  0.42598  1.0000
  H   H982      1.0  0.70742  0.44983  0.45600  1.0000
  H   H983      1.0  0.83721  0.47493  0.50164  1.0000
  H   H984      1.0  0.72734  0.35686  0.57681  1.0000
  H   H985      1.0  0.50706  0.44767  0.48451  1.0000
  C   C559      1.0  0.50509  0.47325  0.54495  1.0000
  H   H986      1.0  0.80390  0.39124  0.44198  1.0000
  H   H987      1.0  0.55656  0.01618  0.53093  1.0000
  H   H988      1.0  0.78387  0.45913  0.53765  1.0000
  H   H989      1.0  0.83437  0.40420  0.39400  1.0000
  H   H990      1.0  0.81985  0.44940  0.42661  1.0000
  N   N32       1.0  0.80295  0.45005  0.47416  1.0000
  H   H991      1.0  0.84717  0.36866  0.41229  1.0000
  H   H992      1.0  0.98413  0.44989  0.48694  1.0000
  H   H993      1.0  0.97083  0.39540  0.50081  1.0000
  H   H994      1.0  0.63287  0.39956  0.53139  1.0000
  Fe  Fe64      1.0  0.85823  0.46722  0.59642  1.0000
  C   C560      1.0  0.77149  0.45728  0.46046  1.0000
  H   H995      1.0  0.65228  0.43333  0.54781  1.0000
  H   H996      1.0  0.75663  0.46899  0.47807  1.0000
  H   H997      1.0  0.70054  0.42143  0.63168  1.0000
  Fe  Fe65      1.0  0.52689  0.05779  0.62865  1.0000
  H   H998      1.0  0.73488  0.32062  0.62163  1.0000
  C   C561      1.0  0.63318  0.36393  0.58434  1.0000
  H   H999      1.0  0.97789  0.46801  0.62814  1.0000
  C   C562      1.0  0.65240  0.02722  0.53418  1.0000
  C   C563      1.0  0.68572  0.36002  0.60621  1.0000
  H   H1000     1.0  0.56001  0.18428  0.55037  1.0000
  C   C564      1.0  0.94013  0.01412  0.42326  1.0000
  Fe  Fe66      1.0  0.52911  0.40525  0.63214  1.0000
  C   C565      1.0  0.65692  0.41033  0.60767  1.0000
  C   C566      1.0  0.99109  0.40705  0.51201  1.0000
  C   C567      1.0  0.72113  0.36482  0.60067  1.0000
  C   C568      1.0  0.97058  0.24250  0.39360  1.0000
  H   H1001     1.0  0.64732  0.40421  0.63084  1.0000
  H   H1002     1.0  0.75000  0.41059  0.46425  1.0000
  H   H1003     1.0  0.96447  0.44746  0.52323  1.0000
  H   H1004     1.0  0.86575  0.45217  0.35941  1.0000
  C   C569      1.0  0.98540  0.21456  0.38461  1.0000
  H   H1005     1.0  0.69373  0.47767  0.63546  1.0000
  H   H1006     1.0  0.65585  0.04754  0.51858  1.0000
  H   H1007     1.0  0.65946  0.45820  0.64999  1.0000
  C   C570      1.0  0.68177  0.00717  0.53443  1.0000
  H   H1008     1.0  0.86979  0.40377  0.41693  1.0000
  H   H1009     1.0  0.63381  0.33227  0.62510  1.0000
  H   H1010     1.0  0.97383  0.19233  0.38788  1.0000
  H   H1011     1.0  0.54931  0.02910  0.49182  1.0000
  H   H1012     1.0  0.84426  0.49747  0.44789  1.0000
  H   H1013     1.0  0.54375  0.07092  0.54978  1.0000
  H   H1014     1.0  0.57767  0.32266  0.62781  1.0000
  H   H1015     1.0  0.67526  0.49155  0.49972  1.0000
  C   C571      1.0  0.51845  0.26438  0.64457  1.0000
  H   H1016     1.0  0.90298  0.49448  0.48345  1.0000
  H   H1017     1.0  0.95680  0.32682  0.33974  1.0000
  H   H1018     1.0  0.65912  0.47602  0.61173  1.0000
  H   H1019     1.0  0.57051  0.34954  0.59663  1.0000
  H   H1020     1.0  0.83372  0.49231  0.33854  1.0000
  H   H1021     1.0  0.68948  0.47917  0.55441  1.0000
  Fe  Fe67      1.0  0.98330  0.07241  0.38556  1.0000
  H   H1022     1.0  0.52487  0.48992  0.54469  1.0000
  H   H1023     1.0  0.91183  0.02096  0.46398  1.0000
  C   C572      1.0  0.99909  0.49157  0.57240  1.0000
  C   C573      1.0  0.88588  0.44767  0.34396  1.0000
  H   H1024     1.0  0.70152  0.02268  0.54089  1.0000
  C   C574      1.0  0.98532  0.27163  0.38983  1.0000
  H   H1025     1.0  0.53918  0.08250  0.50965  1.0000
  C   C575      1.0  0.55088  0.06578  0.52548  1.0000
  H   H1026     1.0  0.90521  0.02071  0.56440  1.0000
  Fe  Fe68      1.0  0.51222  0.12393  0.65211  1.0000
  H   H1027     1.0  0.99264  0.39849  0.53633  1.0000
  C   C576      1.0  0.51058  0.00864  0.42145  1.0000
  H   H1028     1.0  0.73614  0.35385  0.64792  1.0000
  H   H1029     1.0  0.98252  0.09817  0.47864  1.0000
  H   H1030     1.0  0.51226  0.41596  0.43602  1.0000
  C   C577      1.0  0.92273  0.00392  0.44894  1.0000
  H   H1031     1.0  0.93297  0.00699  0.51505  1.0000
  C   C578      1.0  0.50732  0.02582  0.52161  1.0000
  C   C579      1.0  0.51035  0.19171  0.55548  1.0000
  H   H1032     1.0  0.53633  0.00829  0.42367  1.0000
  H   H1033     1.0  0.50936  0.47377  0.43271  1.0000
  H   H1034     1.0  0.50402  0.02788  0.40551  1.0000
  H   H1035     1.0  0.50312  0.02850  0.54709  1.0000
  C   C580      1.0  0.69687  0.50023  0.50949  1.0000
  H   H1036     1.0  0.82221  0.49623  0.39442  1.0000
  H   H1037     1.0  0.55992  0.49291  0.64414  1.0000
  H   H1038     1.0  0.87903  0.49865  0.38057  1.0000
  Fe  Fe69      1.0  0.92102  0.09218  0.97419  1.0000
  C   C581      1.0  0.73112  0.03584  0.97303  1.0000
  H   H1039     1.0  0.66918  0.45860  0.90738  1.0000
  S   S130      1.0  0.56902  0.10332  0.94559  1.0000
  S   S131      1.0  0.52701  0.37213  0.67265  1.0000
  H   H1040     1.0  0.91938  0.32772  0.85706  1.0000
  C   C582      1.0  0.81282  0.22353  0.98928  1.0000
  S   S132      1.0  0.88837  0.13183  0.96579  1.0000
  H   H1041     1.0  0.99434  0.33430  0.95510  1.0000
  H   H1042     1.0  0.54908  0.45912  0.70152  1.0000
  H   H1043     1.0  0.56990  0.45997  0.73807  1.0000
  H   H1044     1.0  0.89609  0.35725  0.87577  1.0000
  S   S133      1.0  0.94335  0.06233  0.93728  1.0000
  C   C583      1.0  0.98957  0.38228  0.94125  1.0000
  S   S134      1.0  0.83462  0.43920  0.96694  1.0000
  S   S135      1.0  0.81239  0.40111  0.90459  1.0000
  H   H1045     1.0  0.51722  0.01090  0.83713  1.0000
  C   C584      1.0  0.50432  0.45831  0.98646  1.0000
  S   S136      1.0  0.74389  0.43298  0.95487  1.0000
  Fe  Fe70      1.0  0.85607  0.40633  0.93276  1.0000
  S   S137      1.0  0.88479  0.36551  0.94954  1.0000
  H   H1046     1.0  0.97989  0.43415  0.86718  1.0000
  C   C585      1.0  0.66702  0.35949  0.99571  1.0000
  S   S138      1.0  0.53512  0.08228  0.67434  1.0000
  H   H1047     1.0  0.78663  0.26644  0.94551  1.0000
  H   H1048     1.0  0.93753  0.32521  0.95962  1.0000
  C   C586      1.0  0.87789  0.27028  0.91895  1.0000
  C   C587      1.0  0.68225  0.07727  0.93932  1.0000
  H   H1049     1.0  0.81557  0.27547  0.91717  1.0000
  C   C588      1.0  0.84458  0.48714  0.79496  1.0000
  H   H1050     1.0  0.58502  0.45370  0.96302  1.0000
  H   H1051     1.0  0.88985  0.42448  0.73101  1.0000
  H   H1052     1.0  0.89653  0.46459  0.83186  1.0000
  H   H1053     1.0  0.58570  0.41955  0.68123  1.0000
  C   C589      1.0  0.92517  0.37238  0.94760  1.0000
  C   C590      1.0  0.94609  0.34802  0.95323  1.0000
  C   C591      1.0  0.96873  0.40667  0.93604  1.0000
  C   C592      1.0  0.93673  0.40193  0.94005  1.0000
  C   C593      1.0  0.91694  0.42343  0.78938  1.0000
  H   H1054     1.0  0.73803  0.02671  0.92271  1.0000
  H   H1055     1.0  0.92119  0.42130  0.93759  1.0000
  C   C594      1.0  0.95880  0.16777  0.92982  1.0000
  H   H1056     1.0  0.61789  0.47875  0.71059  1.0000
  C   C595      1.0  0.55209  0.47983  0.89884  1.0000
  H   H1057     1.0  0.77869  0.18637  0.99323  1.0000
  C   C596      1.0  0.57593  0.03413  0.85020  1.0000
  H   H1058     1.0  0.83077  0.45352  0.71168  1.0000
  H   H1059     1.0  0.70192  0.33779  0.96575  1.0000
  C   C597      1.0  0.51618  0.00485  0.73473  1.0000
  H   H1060     1.0  0.55779  0.13825  0.88538  1.0000
  H   H1061     1.0  0.68810  0.02966  0.92462  1.0000
  H   H1062     1.0  0.74280  0.02701  0.99435  1.0000
  C   C598      1.0  0.91870  0.35264  0.86413  1.0000
  C   C599      1.0  0.92243  0.37329  0.83544  1.0000
  H   H1063     1.0  0.69174  0.42896  0.99597  1.0000
  H   H1064     1.0  0.80128  0.33161  0.91945  1.0000
  H   H1065     1.0  0.74592  0.11743  0.96339  1.0000
  C   C600      1.0  0.56934  0.06233  0.94755  1.0000
  C   C601      1.0  0.92348  0.44656  0.76240  1.0000
  N   N33       1.0  0.52124  0.43228  0.96983  1.0000
  Fe  Fe71      1.0  0.79263  0.43798  0.93599  1.0000
  C   C602      1.0  0.59412  0.04701  0.96177  1.0000
  H   H1066     1.0  0.96672  0.14451  0.92171  1.0000
  H   H1067     1.0  0.54964  0.07153  0.74234  1.0000
  H   H1068     1.0  0.79490  0.24182  0.99242  1.0000
  Fe  Fe72      1.0  0.83031  0.44116  0.87577  1.0000
  H   H1069     1.0  0.67527  0.07311  0.88904  1.0000
  H   H1070     1.0  0.63613  0.45359  0.93266  1.0000
  H   H1071     1.0  0.57318  0.09391  0.79099  1.0000
  H   H1072     1.0  0.52553  0.06404  0.79471  1.0000
  C   C603      1.0  0.55101  0.42365  0.98640  1.0000
  H   H1073     1.0  0.91700  0.45044  0.71240  1.0000
  Fe  Fe73      1.0  0.85099  0.47672  0.93466  1.0000
  H   H1074     1.0  0.77227  0.32307  0.94874  1.0000
  S   S139      1.0  0.87519  0.44383  0.90216  1.0000
  C   C604      1.0  0.50934  0.37686  0.94689  1.0000
  H   H1075     1.0  0.59706  0.05931  0.79454  1.0000
  C   C605      1.0  0.59592  0.01433  0.96077  1.0000
  H   H1076     1.0  0.61239  0.06050  0.97266  1.0000
  C   C606      1.0  0.78246  0.03173  0.94449  1.0000
  H   H1077     1.0  0.67123  0.09113  0.95813  1.0000
  C   C607      1.0  0.91910  0.40837  0.84390  1.0000
  C   C608      1.0  0.59492  0.48234  0.69905  1.0000
  H   H1078     1.0  0.89368  0.41239  0.84692  1.0000
  H   H1079     1.0  0.57402  0.46622  0.89871  1.0000
  H   H1080     1.0  0.93501  0.46150  0.87964  1.0000
  C   C609      1.0  0.57251  0.06361  0.75140  1.0000
  Fe  Fe74      1.0  0.58393  0.12603  0.99074  1.0000
  H   H1081     1.0  0.83164  0.23119  0.94310  1.0000
  C   C610      1.0  0.91017  0.27225  0.90417  1.0000
  S   S140      1.0  0.80719  0.10480  0.98573  1.0000
  H   H1082     1.0  0.99616  0.43852  0.99421  1.0000
  H   H1083     1.0  0.93480  0.17141  0.92095  1.0000
  H   H1084     1.0  0.54993  0.48723  0.94811  1.0000
  H   H1085     1.0  0.56865  0.40732  0.71753  1.0000
  C   C611      1.0  0.78529  0.31339  0.92859  1.0000
  H   H1086     1.0  0.98751  0.02274  0.90726  1.0000
  H   H1087     1.0  0.52123  0.02854  0.87426  1.0000
  H   H1088     1.0  0.90397  0.36652  0.81848  1.0000
  C   C612      1.0  0.98386  0.06577  0.93309  1.0000
  H   H1089     1.0  0.56947  0.47012  0.99880  1.0000
  H   H1090     1.0  0.59785  0.04605  0.84362  1.0000
  H   H1091     1.0  0.57570  0.03859  0.74537  1.0000
  C   C613      1.0  0.84532  0.49368  0.73824  1.0000
  H   H1092     1.0  0.95816  0.16820  0.95567  1.0000
  H   H1093     1.0  0.92933  0.41236  0.86733  1.0000
  H   H1094     1.0  0.97010  0.48038  0.96309  1.0000
  C   C614      1.0  0.91447  0.43248  0.73084  1.0000
  C   C615      1.0  0.57723  0.44844  0.98701  1.0000
  H   H1095     1.0  0.92502  0.25281  0.91242  1.0000
  H   H1096     1.0  0.90800  0.27054  0.87844  1.0000
  H   H1097     1.0  0.92154  0.29486  0.91011  1.0000
  C   C616      1.0  0.83459  0.46302  0.73477  1.0000
  H   H1098     1.0  0.81419  0.17493  0.97416  1.0000
  H   H1099     1.0  0.52548  0.01560  0.71396  1.0000
  H   H1100     1.0  0.54472  0.02790  0.79356  1.0000
  H   H1101     1.0  0.93792  0.35710  0.88096  1.0000
  H   H1102     1.0  0.98309  0.18911  0.89202  1.0000
  C   C617      1.0  0.98622  0.48603  0.98261  1.0000
  H   H1103     1.0  0.51353  0.49022  0.92901  1.0000
  H   H1104     1.0  0.86418  0.29007  0.90965  1.0000
  C   C618      1.0  0.66499  0.08551  0.90929  1.0000
  C   C619      1.0  0.73737  0.44941  0.99190  1.0000
  C   C620      1.0  0.98032  0.19324  0.91734  1.0000
  C   C621      1.0  0.54733  0.01194  0.93258  1.0000
  H   H1105     1.0  0.63993  0.07923  0.91123  1.0000
  N   N34       1.0  0.54777  0.05133  0.83812  1.0000
  H   H1106     1.0  0.51950  0.47907  0.98958  1.0000
  C   C622      1.0  0.54677  0.08406  0.85158  1.0000
  C   C623      1.0  0.96820  0.25232  0.99816  1.0000
  C   C624      1.0  0.54682  0.05197  0.80304  1.0000
  S   S141      1.0  0.92269  0.20719  0.00087  1.0000
  H   H1107     1.0  0.94525  0.36820  0.82459  1.0000
  C   C625      1.0  0.66044  0.46233  0.93144  1.0000
  C   C626      1.0  0.57836  0.10083  0.85770  1.0000
  C   C627      1.0  0.57363  0.13539  0.86516  1.0000
  C   C628      1.0  0.57430  0.06839  0.78664  1.0000
  S   S142      1.0  0.80729  0.47792  0.90544  1.0000
  C   C629      1.0  0.83938  0.23470  0.96750  1.0000
  H   H1108     1.0  0.53688  0.47196  0.87933  1.0000
  H   H1109     1.0  0.60806  0.42164  0.71703  1.0000
  C   C630      1.0  0.51920  0.03386  0.84906  1.0000
  H   H1110     1.0  0.53525  0.08397  0.87482  1.0000
  H   H1111     1.0  0.56147  0.40275  0.97537  1.0000
  C   C631      1.0  0.54557  0.04473  0.93350  1.0000
  C   C632      1.0  0.83423  0.45633  0.79142  1.0000
  C   C633      1.0  0.98590  0.41971  0.84671  1.0000
  H   H1112     1.0  0.59112  0.07734  0.73982  1.0000
  H   H1113     1.0  0.57579  0.03436  0.87613  1.0000
  H   H1114     1.0  0.76838  0.30716  0.90994  1.0000
  C   C634      1.0  0.57237  0.45748  0.71249  1.0000
  H   H1115     1.0  0.88951  0.29674  0.95906  1.0000
  H   H1116     1.0  0.50635  0.38425  0.92232  1.0000
  H   H1117     1.0  0.59008  0.09008  0.87809  1.0000
  H   H1118     1.0  0.59440  0.09923  0.83769  1.0000
  H   H1119     1.0  0.53219  0.09938  0.83659  1.0000
  H   H1120     1.0  0.59634  0.14635  0.87118  1.0000
  H   H1121     1.0  0.56368  0.14769  0.84473  1.0000
  H   H1122     1.0  0.52573  0.05648  0.92350  1.0000
  C   C635      1.0  0.52729  0.44146  0.93641  1.0000
  C   C636      1.0  0.80365  0.28447  0.93812  1.0000
  H   H1123     1.0  0.90932  0.46799  0.76543  1.0000
  H   H1124     1.0  0.82137  0.42058  0.75825  1.0000
  H   H1125     1.0  0.89115  0.42190  0.79198  1.0000
  C   C637      1.0  0.74859  0.02068  0.94543  1.0000
  H   H1126     1.0  0.54588  0.42642  0.92641  1.0000
  S   S143      1.0  0.82878  0.43109  0.82362  1.0000
  H   H1127     1.0  0.98147  0.39505  0.85315  1.0000
  H   H1128     1.0  0.65492  0.03592  0.94741  1.0000
  C   C638      1.0  0.79700  0.19407  0.97671  1.0000
  C   C639      1.0  0.82929  0.44441  0.76123  1.0000
  C   C640      1.0  0.74599  0.12218  0.98814  1.0000
  C   C641      1.0  0.58458  0.42455  0.70660  1.0000
  H   H1129     1.0  0.78361  0.05721  0.93982  1.0000
  C   C642      1.0  0.50964  0.47145  0.78263  1.0000
  H   H1130     1.0  0.96839  0.21594  0.92081  1.0000
  H   H1131     1.0  0.73612  0.06127  0.97302  1.0000
  C   C643      1.0  0.97830  0.35311  0.95061  1.0000
  H   H1132     1.0  0.92434  0.39998  0.78108  1.0000
  H   H1133     1.0  0.97331  0.41109  0.79901  1.0000
  H   H1134     1.0  0.89848  0.25643  0.96289  1.0000
  H   H1135     1.0  0.81175  0.29753  0.98564  1.0000
  C   C644      1.0  0.88020  0.27289  0.95480  1.0000
  H   H1136     1.0  0.86727  0.24788  0.91139  1.0000
  C   C645      1.0  0.96705  0.42874  0.81705  1.0000
  C   C646      1.0  0.53528  0.47630  0.92994  1.0000
  N   N35       1.0  0.93208  0.43100  0.82039  1.0000
  H   H1137     1.0  0.85898  0.21795  0.97054  1.0000
  H   H1138     1.0  0.97741  0.42943  0.92941  1.0000
  H   H1139     1.0  0.96223  0.48239  0.85558  1.0000
  C   C647      1.0  0.93717  0.47742  0.85956  1.0000
  H   H1140     1.0  0.50617  0.43696  0.92187  1.0000
  H   H1141     1.0  0.78587  0.19856  0.95381  1.0000
  H   H1142     1.0  0.70685  0.08470  0.93671  1.0000
  H   H1143     1.0  0.79505  0.01940  0.92556  1.0000
  N   N36       1.0  0.85065  0.26770  0.97306  1.0000
  H   H1144     1.0  0.66672  0.11104  0.90518  1.0000
  H   H1145     1.0  0.67492  0.44865  0.94775  1.0000
  H   H1146     1.0  0.94841  0.45330  0.76150  1.0000
  H   H1147     1.0  0.92973  0.41244  0.72503  1.0000
  H   H1148     1.0  0.61470  0.41472  0.99314  1.0000
  C   C648      1.0  0.67998  0.04178  0.94592  1.0000
  H   H1149     1.0  0.78132  0.47362  0.99464  1.0000
  H   H1150     1.0  0.64833  0.35833  0.97783  1.0000
  H   H1151     1.0  0.51871  0.45462  0.79898  1.0000
  H   H1152     1.0  0.97659  0.45120  0.80813  1.0000
  C   C649      1.0  0.92237  0.46363  0.82956  1.0000
  H   H1153     1.0  0.98793  0.10922  0.95811  1.0000
  H   H1154     1.0  0.53374  0.36934  0.95007  1.0000
  H   H1155     1.0  0.59830  0.47600  0.67419  1.0000
  H   H1156     1.0  0.92848  0.48070  0.81118  1.0000
  H   H1157     1.0  0.65139  0.49962  0.96358  1.0000
  C   C650      1.0  1.00000  0.04265  0.91666  1.0000
  H   H1158     1.0  0.79444  0.02693  0.96692  1.0000
  C   C651      1.0  0.82663  0.29215  0.96510  1.0000
  H   H1159     1.0  0.83836  0.31472  0.95960  1.0000
  H   H1160     1.0  0.69831  0.37938  0.96144  1.0000
  N   N37       1.0  0.69653  0.03001  0.97463  1.0000
  C   C652      1.0  0.00012  0.09146  0.94520  1.0000
  C   C653      1.0  0.66141  0.49699  0.93994  1.0000
  C   C654      1.0  0.69814  0.36002  0.97857  1.0000
  H   H1161     1.0  0.69703  0.13384  0.98970  1.0000
  H   H1162     1.0  0.97715  0.01371  0.98718  1.0000
  H   H1163     1.0  0.95032  0.26721  0.98867  1.0000
  H   H1164     1.0  0.71762  0.36397  0.99523  1.0000
  H   H1165     1.0  0.84841  0.49666  0.81803  1.0000
  H   H1166     1.0  0.93924  0.44626  0.99881  1.0000
  H   H1167     1.0  0.70915  0.49702  0.95641  1.0000
  H   H1168     1.0  0.54770  0.31347  0.99762  1.0000
  H   H1169     1.0  0.61532  0.00257  0.97154  1.0000
  S   S144      1.0  0.61141  0.17055  0.99835  1.0000
  H   H1170     1.0  0.68986  0.07293  0.00092  1.0000
  H   H1171     1.0  0.60938  0.31176  0.00117  1.0000
  C   C655      1.0  0.94739  0.94165  0.18677  1.0000
  H   H1172     1.0  0.98621  0.87079  0.02168  1.0000
  C   C656      1.0  0.53815  0.51008  0.19761  1.0000
  Fe  Fe75      1.0  0.60747  0.53338  0.08215  1.0000
  H   H1173     1.0  0.92432  0.96213  0.22570  1.0000
  H   H1174     1.0  0.56098  0.50767  0.18610  1.0000
  S   S145      1.0  0.95200  0.92560  0.09523  1.0000
  H   H1175     1.0  0.52399  0.88168  0.00722  1.0000
  H   H1176     1.0  0.00076  0.00061  0.30577  1.0000
  H   H1177     1.0  0.95254  0.82791  0.03938  1.0000
  Fe  Fe76      1.0  0.94219  0.54851  0.11921  1.0000
  S   S146      1.0  0.90154  0.52121  0.09910  1.0000
  S   S147      1.0  0.93991  0.57906  0.16199  1.0000
  H   H1178     1.0  0.84053  0.61241  0.20963  1.0000
  H   H1179     1.0  0.99836  0.91258  0.04797  1.0000
  H   H1180     1.0  0.52866  0.63974  0.02999  1.0000
  S   S148      1.0  0.58671  0.57153  0.05264  1.0000
  H   H1181     1.0  0.93436  0.91930  0.18873  1.0000
  H   H1182     1.0  0.94909  0.68413  0.06639  1.0000
  H   H1183     1.0  0.86149  0.57835  0.19699  1.0000
  C   C657      1.0  0.67686  0.55292  0.03181  1.0000
  H   H1184     1.0  0.84274  0.55568  0.10696  1.0000
  S   S149      1.0  0.57973  0.51008  0.11967  1.0000
  H   H1185     1.0  0.96992  0.93914  0.19919  1.0000
  H   H1186     1.0  0.70483  0.58268  0.13084  1.0000
  C   C658      1.0  0.98886  0.50662  0.24382  1.0000
  C   C659      1.0  0.89647  0.52001  0.05825  1.0000
  H   H1187     1.0  0.78417  0.55918  0.06473  1.0000
  H   H1188     1.0  0.91822  0.84893  0.02752  1.0000
  H   H1189     1.0  0.94297  0.53347  0.29145  1.0000
  C   C660      1.0  0.91619  0.53617  0.03797  1.0000
  Fe  Fe77      1.0  0.97079  0.61268  0.13579  1.0000
  H   H1190     1.0  0.93568  0.54926  0.04705  1.0000
  H   H1191     1.0  0.53499  0.91946  0.05100  1.0000
  C   C661      1.0  0.55335  0.00226  0.05210  1.0000
  H   H1192     1.0  0.94629  0.64217  0.06215  1.0000
  H   H1193     1.0  0.98712  0.68646  0.02362  1.0000
  C   C662      1.0  0.94813  0.90237  0.00595  1.0000
  C   C663      1.0  0.51875  0.66099  0.01944  1.0000
  C   C664      1.0  0.79046  0.51574  0.12318  1.0000
  C   C665      1.0  0.96963  0.98709  0.10620  1.0000
  H   H1194     1.0  0.75462  0.56341  0.10582  1.0000
  C   C666      1.0  0.52851  0.99923  0.02586  1.0000
  S   S150      1.0  0.96915  0.58362  0.09200  1.0000
  H   H1195     1.0  0.98384  0.64540  0.01724  1.0000
  H   H1196     1.0  0.90588  0.96870  0.18827  1.0000
  C   C667      1.0  0.61585  0.52441  0.29083  1.0000
  C   C668      1.0  0.94811  0.96669  0.09241  1.0000
  S   S151      1.0  0.64766  0.54421  0.11381  1.0000
  C   C669      1.0  0.91061  0.53547  0.00564  1.0000
  C   C670      1.0  0.92306  0.97922  0.07559  1.0000
  H   H1197     1.0  0.57922  0.61769  0.00590  1.0000
  Fe  Fe78      1.0  0.98436  0.55531  0.17612  1.0000
  H   H1198     1.0  0.90618  0.96370  0.06491  1.0000
  C   C671      1.0  0.81844  0.58722  0.17151  1.0000
  S   S152      1.0  0.95694  0.66416  0.13224  1.0000
  H   H1199     1.0  0.52321  0.86711  0.32910  1.0000
  C   C672      1.0  0.82823  0.57353  0.04621  1.0000
  H   H1200     1.0  0.56421  0.88279  0.01928  1.0000
  H   H1201     1.0  0.61049  0.53760  0.31167  1.0000
  C   C673      1.0  0.96527  0.72785  0.12803  1.0000
  H   H1202     1.0  0.81892  0.58892  0.10516  1.0000
  H   H1203     1.0  0.68645  0.51338  0.00265  1.0000
  H   H1204     1.0  0.82318  0.56524  0.02215  1.0000
  H   H1205     1.0  0.92930  0.55023  0.23806  1.0000
  H   H1206     1.0  0.68477  0.54106  0.05325  1.0000
  C   C674      1.0  0.91216  0.55254  0.25721  1.0000
  H   H1207     1.0  0.85352  0.57068  0.05066  1.0000
  H   H1208     1.0  0.83820  0.50341  0.10935  1.0000
  C   C675      1.0  0.61406  0.53867  0.26140  1.0000
  C   C676      1.0  0.62077  0.52179  0.23412  1.0000
  H   H1209     1.0  0.71825  0.54037  0.00753  1.0000
  H   H1210     1.0  0.97142  0.95734  0.02785  1.0000
  H   H1211     1.0  0.82233  0.59869  0.04785  1.0000
  H   H1212     1.0  0.68268  0.57811  0.03401  1.0000
  H   H1213     1.0  0.56396  0.97960  0.05811  1.0000
  C   C677      1.0  0.92837  0.96815  0.20098  1.0000
  H   H1214     1.0  0.54205  0.51883  0.22166  1.0000
  H   H1215     1.0  0.87443  0.99380  0.21974  1.0000
  H   H1216     1.0  0.91912  0.50520  0.27139  1.0000
  S   S153      1.0  0.98773  0.87089  0.16249  1.0000
  H   H1217     1.0  0.94115  0.72817  0.12078  1.0000
  H   H1218     1.0  0.83074  0.60168  0.15403  1.0000
  H   H1219     1.0  0.60736  0.56293  0.25977  1.0000
  C   C678      1.0  0.80909  0.55463  0.06950  1.0000
  Fe  Fe79      1.0  0.62178  0.51727  0.15032  1.0000
  H   H1220     1.0  0.80174  0.53968  0.17798  1.0000
  H   H1221     1.0  0.51840  0.96073  0.07611  1.0000
  C   C679      1.0  0.76706  0.56752  0.12823  1.0000
  H   H1222     1.0  0.95196  0.94609  0.16176  1.0000
  H   H1223     1.0  0.77455  0.50648  0.14133  1.0000
  C   C680      1.0  0.58837  0.56879  0.01175  1.0000
  H   H1224     1.0  0.75388  0.55972  0.17762  1.0000
  S   S154      1.0  0.98392  0.52197  0.13564  1.0000
  H   H1225     1.0  0.87166  0.52860  0.29783  1.0000
  H   H1226     1.0  0.94029  0.91254  0.02855  1.0000
  H   H1227     1.0  0.65127  0.55018  0.03001  1.0000
  H   H1228     1.0  0.97001  0.99659  0.20497  1.0000
  H   H1229     1.0  0.88859  0.54864  0.24724  1.0000
  H   H1230     1.0  0.52159  0.59525  0.00847  1.0000
  C   C681      1.0  0.94255  0.85152  0.03595  1.0000
  H   H1231     1.0  0.50868  0.67536  0.03850  1.0000
  H   H1232     1.0  0.77145  0.59314  0.12908  1.0000
  C   C682      1.0  0.81387  0.55328  0.15958  1.0000
  C   C683      1.0  0.53964  0.92636  0.02660  1.0000
  C   C684      1.0  0.97924  0.69920  0.13564  1.0000
  C   C685      1.0  0.71604  0.58192  0.15416  1.0000
  C   C686      1.0  0.89492  0.53050  0.30915  1.0000
  C   C687      1.0  0.81814  0.56300  0.10356  1.0000
  H   H1233     1.0  0.73341  0.53544  0.14995  1.0000
  H   H1234     1.0  0.72410  0.60575  0.16066  1.0000
  C   C688      1.0  0.83788  0.58792  0.20138  1.0000
  H   H1235     1.0  0.54097  0.99594  0.00339  1.0000
  H   H1236     1.0  0.94252  0.86375  0.05884  1.0000
  H   H1237     1.0  0.59770  0.51954  0.00991  1.0000
  H   H1238     1.0  0.79571  0.59823  0.17675  1.0000
  C   C689      1.0  0.51220  0.94497  0.01275  1.0000
  H   H1239     1.0  0.53346  0.55722  0.18024  1.0000
  H   H1240     1.0  0.83754  0.54283  0.15814  1.0000
  H   H1241     1.0  0.51612  0.52788  0.15545  1.0000
  H   H1242     1.0  0.69832  0.57426  0.17137  1.0000
  C   C690      1.0  0.54552  0.67978  0.00530  1.0000
  H   H1243     1.0  0.81359  0.52959  0.06488  1.0000
  C   C691      1.0  0.96219  0.86963  0.01246  1.0000
  S   S155      1.0  0.61727  0.54059  0.19770  1.0000
  H   H1244     1.0  0.93347  0.66725  0.03117  1.0000
  H   H1245     1.0  0.56349  0.68450  0.02337  1.0000
  H   H1246     1.0  0.82637  0.57415  0.21997  1.0000
  H   H1247     1.0  0.91386  0.57664  0.26675  1.0000
  C   C692      1.0  0.87148  0.50287  0.04585  1.0000
  H   H1248     1.0  0.56134  0.94036  0.02546  1.0000
  C   C693      1.0  0.98219  0.75617  0.12976  1.0000
  H   H1249     1.0  0.55161  0.50412  0.29450  1.0000
  H   H1250     1.0  0.98911  0.97801  0.11898  1.0000
  C   C694      1.0  0.91920  0.52859  0.28255  1.0000
  C   C695      1.0  0.74327  0.55910  0.15409  1.0000
  H   H1251     1.0  0.54451  0.90293  0.32165  1.0000
  H   H1252     1.0  0.97113  0.77797  0.12380  1.0000
  H   H1253     1.0  0.50273  0.97216  0.30929  1.0000
  N   N38       1.0  0.79736  0.54983  0.12871  1.0000
  H   H1254     1.0  0.89574  0.55451  0.31915  1.0000
  C   C696      1.0  0.98697  0.94532  0.01106  1.0000
  H   H1255     1.0  0.93055  0.97894  0.00816  1.0000
  H   H1256     1.0  0.77762  0.51254  0.10095  1.0000
  Fe  Fe80      1.0  0.99249  0.90390  0.12176  1.0000
  C   C697      1.0  0.69283  0.53846  0.00352  1.0000
  C   C698      1.0  0.54534  0.89639  0.00810  1.0000
  C   C699      1.0  0.95121  0.66432  0.04975  1.0000
  H   H1257     1.0  0.52381  0.53748  0.00909  1.0000
  C   C700      1.0  0.98371  0.66387  0.03544  1.0000
  C   C701      1.0  0.51994  0.53504  0.18008  1.0000
  N   N39       1.0  0.50343  0.97453  0.02980  1.0000
  H   H1258     1.0  0.90525  0.94613  0.00147  1.0000
  C   C702      1.0  0.94543  0.99979  0.19736  1.0000
  S   S156      1.0  0.99574  0.54335  0.22639  1.0000
  N   N40       1.0  0.89790  0.50633  0.33440  1.0000
  Fe  Fe81      1.0  0.63618  0.84016  0.51161  1.0000
  S   S157      1.0  0.61452  0.81831  0.55402  1.0000
  S   S158      1.0  0.68581  0.83661  0.49338  1.0000
  Fe  Fe82      1.0  0.57278  0.86112  0.48594  1.0000
  S   S159      1.0  0.54613  0.84103  0.52594  1.0000
  S   S160      1.0  0.55316  0.88779  0.44511  1.0000
  Fe  Fe83      1.0  0.58450  0.86139  0.55548  1.0000
  S   S161      1.0  0.57005  0.88442  0.60074  1.0000
  Fe  Fe84      1.0  0.57775  0.79982  0.52137  1.0000
  S   S162      1.0  0.56224  0.74924  0.52148  1.0000
  S   S163      1.0  0.60894  0.88476  0.51562  1.0000
  S   S164      1.0  0.60152  0.81821  0.47877  1.0000
  S   S165      1.0  0.57708  0.59421  0.43188  1.0000
  S   S166      1.0  0.87530  0.57472  0.56054  1.0000
  Fe  Fe85      1.0  0.86133  0.87795  0.53765  1.0000
  S   S167      1.0  0.87833  0.85143  0.49576  1.0000
  S   S168      1.0  0.81213  0.88253  0.55702  1.0000
  Fe  Fe86      1.0  0.92763  0.89640  0.55729  1.0000
  S   S169      1.0  0.94958  0.87072  0.51764  1.0000
  S   S170      1.0  0.95524  0.92645  0.59096  1.0000
  Fe  Fe87      1.0  0.91157  0.89173  0.48875  1.0000
  S   S171      1.0  0.92779  0.90908  0.44162  1.0000
  Fe  Fe88      1.0  0.91521  0.83264  0.52785  1.0000
  S   S172      1.0  0.92455  0.78053  0.52747  1.0000
  S   S173      1.0  0.89151  0.91995  0.52787  1.0000
  S   S174      1.0  0.89623  0.85658  0.57035  1.0000
  C   C703      1.0  0.56427  0.99106  0.60129  1.0000
  C   C704      1.0  0.96115  0.67364  0.57397  1.0000
  C   C705      1.0  0.91934  0.97184  0.45528  1.0000
  C   C706      1.0  0.93250  0.94964  0.43534  1.0000
  C   C707      1.0  0.94925  0.95980  0.40925  1.0000
  H   H1259     1.0  0.68847  0.94012  0.46309  1.0000
  H   H1260     1.0  0.51728  0.69726  0.58866  1.0000
  H   H1261     1.0  0.90587  0.96432  0.47512  1.0000
  H   H1262     1.0  0.95890  0.94277  0.39337  1.0000
  C   C708      1.0  0.99612  0.67978  0.57658  1.0000
  C   C709      1.0  0.89887  0.79536  0.43718  1.0000
  Fe  Fe89      1.0  0.66057  0.51503  0.43436  1.0000
  C   C710      1.0  0.98729  0.51044  0.51974  1.0000
  C   C711      1.0  0.59948  0.70351  0.44701  1.0000
  C   C712      1.0  0.52799  0.89116  0.33768  1.0000
  H   H1263     1.0  0.56312  0.53816  0.52028  1.0000
  C   C713      1.0  0.96207  0.76601  0.51982  1.0000
  C   C714      1.0  0.96546  0.73431  0.51235  1.0000
  H   H1264     1.0  0.88740  0.81800  0.43223  1.0000
  H   H1265     1.0  0.87107  0.60548  0.61963  1.0000
  H   H1266     1.0  0.94514  0.71939  0.51100  1.0000
  Fe  Fe90      1.0  0.59921  0.54723  0.42249  1.0000
  C   C715      1.0  0.93376  0.59028  0.54017  1.0000
  C   C716      1.0  0.91582  0.57868  0.56482  1.0000
  C   C717      1.0  0.93027  0.57137  0.59303  1.0000
  C   C718      1.0  0.75311  0.52202  0.53481  1.0000
  H   H1267     1.0  0.92267  0.59597  0.51829  1.0000
  C   C719      1.0  0.94340  0.53732  0.36005  1.0000
  C   C720      1.0  0.51425  0.70442  0.61336  1.0000
  C   C721      1.0  0.53630  0.59283  0.43541  1.0000
  H   H1268     1.0  0.53915  0.88952  0.36101  1.0000
  H   H1269     1.0  0.53428  0.63028  0.46910  1.0000
  C   C722      1.0  0.54835  0.55264  0.50481  1.0000
  H   H1270     1.0  0.79745  0.98953  0.56297  1.0000
  H   H1271     1.0  0.66898  0.54111  0.63373  1.0000
  H   H1272     1.0  0.52664  0.69332  0.51140  1.0000
  C   C723      1.0  0.72108  0.84777  0.51189  1.0000
  C   C724      1.0  0.74838  0.84995  0.49403  1.0000
  C   C725      1.0  0.77671  0.85971  0.50763  1.0000
  C   C726      1.0  0.77798  0.86728  0.53931  1.0000
  C   C727      1.0  0.75085  0.86432  0.55731  1.0000
  C   C728      1.0  0.72251  0.85465  0.54369  1.0000
  H   H1273     1.0  0.74754  0.84446  0.46942  1.0000
  H   H1274     1.0  0.79741  0.86188  0.49349  1.0000
  H   H1275     1.0  0.75183  0.86959  0.58195  1.0000
  H   H1276     1.0  0.70180  0.85237  0.55769  1.0000
  C   C729      1.0  0.87547  0.51428  0.36017  1.0000
  C   C730      1.0  0.54666  0.97361  0.62236  1.0000
  C   C731      1.0  0.54853  0.94085  0.62208  1.0000
  C   C732      1.0  0.56759  0.92546  0.60045  1.0000
  C   C733      1.0  0.58449  0.94299  0.57893  1.0000
  C   C734      1.0  0.58318  0.97566  0.57965  1.0000
  C   C735      1.0  0.96245  0.57551  0.59658  1.0000
  H   H1277     1.0  0.90635  0.71806  0.64019  1.0000
  H   H1278     1.0  0.59893  0.93143  0.56203  1.0000
  C   C736      1.0  0.73444  0.97291  0.56597  1.0000
  H   H1279     1.0  0.99542  0.87662  0.56877  1.0000
  H   H1280     1.0  0.99731  0.69734  0.50045  1.0000
  H   H1281     1.0  0.53199  0.98536  0.63912  1.0000
  H   H1282     1.0  0.50439  0.75325  0.60272  1.0000
  C   C737      1.0  0.99306  0.76443  0.40561  1.0000
  C   C738      1.0  0.70882  0.94129  0.52600  1.0000
  H   H1283     1.0  0.72665  0.92256  0.52707  1.0000
  H   H1284     1.0  0.52572  0.64648  0.59462  1.0000
  C   C739      1.0  0.97089  0.52906  0.46594  1.0000
  H   H1285     1.0  0.54425  0.81783  0.64118  1.0000
  H   H1286     1.0  0.67659  0.99041  0.58165  1.0000
  H   H1287     1.0  0.65155  0.94144  0.59961  1.0000
  H   H1288     1.0  0.82007  0.54487  0.49608  1.0000
  C   C740      1.0  0.99115  0.84176  0.45286  1.0000
  H   H1289     1.0  0.96387  0.87236  0.38642  1.0000
  H   H1290     1.0  0.99455  0.78108  0.45338  1.0000
  C   C741      1.0  0.95066  0.81816  0.42008  1.0000
  C   C742      1.0  0.51961  0.82509  0.64399  1.0000
  H   H1291     1.0  0.97343  0.56989  0.61855  1.0000
  C   C743      1.0  0.93296  0.80044  0.44607  1.0000
  C   C744      1.0  0.96600  0.59466  0.54380  1.0000
  H   H1292     1.0  0.94278  0.55564  0.34194  1.0000
  C   C745      1.0  0.91253  0.99648  0.55887  1.0000
  H   H1293     1.0  0.53444  0.96728  0.52590  1.0000
  H   H1294     1.0  0.76062  0.54294  0.48985  1.0000
  H   H1295     1.0  0.98610  0.80952  0.52756  1.0000
  C   C746      1.0  0.98945  0.87025  0.38907  1.0000
  H   H1296     1.0  0.99699  0.88620  0.40809  1.0000
  H   H1297     1.0  0.97732  0.86362  0.45154  1.0000
  H   H1298     1.0  0.88513  0.61783  0.65742  1.0000
  H   H1299     1.0  0.83541  0.53410  0.33536  1.0000
  N   N41       1.0  0.98535  0.82152  0.42463  1.0000
  H   H1300     1.0  0.93350  0.81422  0.46798  1.0000
  H   H1301     1.0  0.94303  0.77717  0.45078  1.0000
  C   C747      1.0  0.52244  0.74107  0.52673  1.0000
  H   H1302     1.0  0.54510  0.74377  0.60483  1.0000
  C   C748      1.0  0.81970  0.51710  0.37946  1.0000
  H   H1303     1.0  0.71853  0.95854  0.50929  1.0000
  H   H1304     1.0  0.95440  0.50950  0.46151  1.0000
  H   H1305     1.0  0.63790  0.88855  0.61580  1.0000
  H   H1306     1.0  0.50487  0.51114  0.64563  1.0000
  H   H1307     1.0  0.53482  0.92746  0.63830  1.0000
  C   C749      1.0  0.97725  0.53403  0.37042  1.0000
  C   C750      1.0  0.99588  0.92200  0.59048  1.0000
  H   H1308     1.0  0.92020  0.66206  0.63461  1.0000
  H   H1309     1.0  0.51951  0.93071  0.40780  1.0000
  H   H1310     1.0  0.65221  0.91507  0.56696  1.0000
  S   S175      1.0  0.64253  0.54225  0.39354  1.0000
  H   H1311     1.0  0.84409  0.61877  0.64858  1.0000
  H   H1312     1.0  0.50401  0.93304  0.34985  1.0000
  C   C751      1.0  0.86773  0.62248  0.63885  1.0000
  H   H1313     1.0  0.94530  0.80682  0.39730  1.0000
  C   C752      1.0  0.52100  0.61358  0.45557  1.0000
  C   C753      1.0  0.67866  0.97993  0.55791  1.0000
  H   H1314     1.0  0.85874  0.52874  0.49532  1.0000
  H   H1315     1.0  0.88028  0.53813  0.36937  1.0000
  H   H1316     1.0  0.67427  0.90012  0.63344  1.0000
  H   H1317     1.0  0.52453  0.68972  0.41726  1.0000
  C   C754      1.0  0.88277  0.77626  0.62375  1.0000
  C   C755      1.0  0.59380  0.66896  0.50509  1.0000
  H   H1318     1.0  0.85732  0.77160  0.62332  1.0000
  H   H1319     1.0  0.86583  0.67160  0.64690  1.0000
  H   H1320     1.0  0.64311  0.71465  0.51639  1.0000
  H   H1321     1.0  0.66075  0.72071  0.44705  1.0000
  C   C756      1.0  0.98844  0.78521  0.52121  1.0000
  H   H1322     1.0  0.85239  0.67687  0.51559  1.0000
  H   H1323     1.0  0.73148  0.98635  0.58807  1.0000
  C   C757      1.0  0.50604  0.62998  0.59223  1.0000
  C   C758      1.0  0.94240  0.69879  0.59177  1.0000
  C   C759      1.0  0.57323  0.68539  0.42972  1.0000
  H   H1324     1.0  0.53050  0.55505  0.40272  1.0000
  C   C760      1.0  0.65307  0.70600  0.46702  1.0000
  C   C761      1.0  0.76370  0.95194  0.56962  1.0000
  H   H1325     1.0  0.57099  0.66967  0.49314  1.0000
  H   H1326     1.0  0.53146  0.69211  0.62799  1.0000
  C   C762      1.0  0.84052  0.51407  0.35086  1.0000
  H   H1327     1.0  0.87335  0.64258  0.50334  1.0000
  H   H1328     1.0  0.67625  0.76611  0.47926  1.0000
  H   H1329     1.0  0.99752  0.90669  0.35502  1.0000
  H   H1330     1.0  0.61324  0.64359  0.54445  1.0000
  H   H1331     1.0  0.89266  0.98452  0.54733  1.0000
  S   S176      1.0  0.81621  0.54134  0.62665  1.0000
  H   H1332     1.0  0.99209  0.52653  0.35061  1.0000
  H   H1333     1.0  0.52999  0.98395  0.47506  1.0000
  Fe  Fe91      1.0  0.84381  0.50631  0.65453  1.0000
  H   H1334     1.0  0.58893  0.71539  0.46737  1.0000
  C   C763      1.0  0.63266  0.52512  0.66496  1.0000
  H   H1335     1.0  0.59781  0.69189  0.51621  1.0000
  H   H1336     1.0  0.55798  0.55164  0.48092  1.0000
  N   N42       1.0  0.70449  0.95611  0.55767  1.0000
  C   C764      1.0  0.87088  0.65590  0.62690  1.0000
  H   H1337     1.0  0.51002  0.61062  0.60883  1.0000
  H   H1338     1.0  0.93953  0.84153  0.41881  1.0000
  H   H1339     1.0  0.60088  0.91712  0.66375  1.0000
  H   H1340     1.0  0.96579  0.99928  0.38295  1.0000
  H   H1341     1.0  0.88646  0.78401  0.45682  1.0000
  H   H1342     1.0  0.89132  0.77569  0.64816  1.0000
  H   H1343     1.0  0.66549  0.90503  0.46701  1.0000
  H   H1344     1.0  0.97966  0.60358  0.52471  1.0000
  H   H1345     1.0  0.95390  0.70255  0.61481  1.0000
  H   H1346     1.0  0.78767  0.98188  0.60333  1.0000
  H   H1347     1.0  0.50755  0.53909  0.52969  1.0000
  H   H1348     1.0  0.53114  0.87230  0.65525  1.0000
  H   H1349     1.0  0.79496  0.51875  0.37209  1.0000
  H   H1350     1.0  0.65571  0.96885  0.55342  1.0000
  H   H1351     1.0  0.52264  0.74701  0.64015  1.0000
  C   C765      1.0  0.52967  0.79230  0.44594  1.0000
  C   C766      1.0  0.95331  0.99187  0.40338  1.0000
  H   H1352     1.0  0.53049  0.81578  0.45699  1.0000
  H   H1353     1.0  0.65900  0.94053  0.51212  1.0000
  N   N43       1.0  0.62725  0.68426  0.45659  1.0000
  C   C767      1.0  0.63863  0.66705  0.42800  1.0000
  C   C768      1.0  0.61976  0.66052  0.48154  1.0000
  C   C769      1.0  0.66906  0.64805  0.43210  1.0000
  C   C770      1.0  0.59127  0.64458  0.53081  1.0000
  C   C771      1.0  0.67497  0.62713  0.40383  1.0000
  H   H1354     1.0  0.67385  0.69254  0.47445  1.0000
  H   H1355     1.0  0.64228  0.68360  0.40836  1.0000
  H   H1356     1.0  0.62068  0.65002  0.41981  1.0000
  H   H1357     1.0  0.61229  0.63792  0.47086  1.0000
  H   H1358     1.0  0.64110  0.65477  0.49509  1.0000
  H   H1359     1.0  0.57994  0.68137  0.40504  1.0000
  H   H1360     1.0  0.56911  0.66231  0.44043  1.0000
  H   H1361     1.0  0.66788  0.63285  0.45293  1.0000
  H   H1362     1.0  0.68944  0.66390  0.43447  1.0000
  H   H1363     1.0  0.57202  0.65095  0.54680  1.0000
  H   H1364     1.0  0.58626  0.62120  0.52064  1.0000
  H   H1365     1.0  0.65528  0.61057  0.40039  1.0000
  H   H1366     1.0  0.67785  0.64137  0.38247  1.0000
  H   H1367     1.0  0.69647  0.61333  0.40757  1.0000
  N   N44       1.0  0.90807  0.69260  0.59644  1.0000
  C   C772      1.0  0.90407  0.66246  0.61424  1.0000
  H   H1368     1.0  0.77469  0.53080  0.54450  1.0000
  C   C773      1.0  0.89561  0.71880  0.61653  1.0000
  C   C774      1.0  0.89082  0.69272  0.56569  1.0000
  C   C775      1.0  0.88815  0.66119  0.54799  1.0000
  H   H1369     1.0  0.98231  0.53314  0.53135  1.0000
  C   C776      1.0  0.90001  0.75238  0.60372  1.0000
  H   H1370     1.0  0.53515  0.77435  0.46365  1.0000
  H   H1371     1.0  0.82576  0.53839  0.39311  1.0000
  C   C777      1.0  0.87566  0.66569  0.51499  1.0000
  C   C778      1.0  0.79194  0.97105  0.58019  1.0000
  H   H1372     1.0  0.99599  0.97373  0.51322  1.0000
  H   H1373     1.0  0.88684  0.80004  0.61435  1.0000
  H   H1374     1.0  0.91081  0.64194  0.59997  1.0000
  H   H1375     1.0  0.92995  0.54550  0.38051  1.0000
  H   H1376     1.0  0.95845  0.54865  0.47742  1.0000
  C   C779      1.0  0.83821  0.53466  0.48076  1.0000
  H   H1377     1.0  0.87010  0.71594  0.61997  1.0000
  H   H1378     1.0  0.86641  0.70081  0.56888  1.0000
  H   H1379     1.0  0.90153  0.71011  0.54966  1.0000
  H   H1380     1.0  0.87191  0.64524  0.56023  1.0000
  H   H1381     1.0  0.95510  0.67420  0.54885  1.0000
  H   H1382     1.0  0.57261  0.53297  0.63901  1.0000
  H   H1383     1.0  0.85297  0.65974  0.60867  1.0000
  H   H1384     1.0  0.89079  0.75417  0.57966  1.0000
  H   H1385     1.0  0.92493  0.75930  0.60376  1.0000
  H   H1386     1.0  0.53460  0.70755  0.45400  1.0000
  H   H1387     1.0  0.94750  0.97195  0.53268  1.0000
  H   H1388     1.0  0.95702  0.64990  0.58309  1.0000
  H   H1389     1.0  0.94611  0.72064  0.57835  1.0000
  H   H1390     1.0  0.54927  0.57722  0.51285  1.0000
  H   H1391     1.0  0.89189  0.68037  0.50119  1.0000
  H   H1392     1.0  0.67525  0.90321  0.52288  1.0000
  H   H1393     1.0  0.50670  0.91956  0.57203  1.0000
  H   H1394     1.0  0.60694  0.72287  0.43141  1.0000
  C   C780      1.0  0.74503  0.52906  0.50393  1.0000
  C   C781      1.0  0.64589  0.72820  0.49464  1.0000
  S   S177      1.0  0.70963  0.52411  0.45124  1.0000
  H   H1395     1.0  0.51059  0.78682  0.54364  1.0000
  H   H1396     1.0  0.99582  0.86794  0.33870  1.0000
  H   H1397     1.0  0.81245  0.95544  0.58216  1.0000
  H   H1398     1.0  0.70764  0.93984  0.60544  1.0000
  C   C782      1.0  0.71713  0.51785  0.49105  1.0000
  H   H1399     1.0  0.84535  0.55257  0.46357  1.0000
  H   H1400     1.0  0.67375  0.87334  0.60070  1.0000
  H   H1401     1.0  0.66704  0.76682  0.52006  1.0000
  C   C783      1.0  0.67265  0.75124  0.50010  1.0000
  S   S178      1.0  0.61889  0.52316  0.46447  1.0000
  C   C784      1.0  0.68564  0.91828  0.47664  1.0000
  H   H1402     1.0  0.74058  0.99033  0.54784  1.0000
  Fe  Fe92      1.0  0.85463  0.53745  0.59137  1.0000
  C   C785      1.0  0.65315  0.55104  0.65162  1.0000
  C   C786      1.0  0.67995  0.92567  0.51102  1.0000
  C   C787      1.0  0.98037  0.58724  0.57207  1.0000
  H   H1403     1.0  0.91656  0.56323  0.61243  1.0000
  C   C788      1.0  0.66265  0.89428  0.61102  1.0000
  H   H1404     1.0  0.71191  0.91018  0.57702  1.0000
  H   H1405     1.0  0.54573  0.72623  0.41792  1.0000
  H   H1406     1.0  0.62479  0.74232  0.49046  1.0000
  H   H1407     1.0  0.76993  0.94085  0.54709  1.0000
  C   C789      1.0  0.54267  0.70346  0.42978  1.0000
  C   C790      1.0  0.69866  0.93166  0.58240  1.0000
  H   H1408     1.0  0.69457  0.73872  0.50551  1.0000
  H   H1409     1.0  0.89696  0.77998  0.41636  1.0000
  C   C791      1.0  0.66443  0.92185  0.58862  1.0000
  H   H1410     1.0  0.76002  0.93323  0.58702  1.0000
  H   H1411     1.0  0.70679  0.90373  0.47378  1.0000
  H   H1412     1.0  0.91075  0.64933  0.54617  1.0000
  H   H1413     1.0  0.54779  0.79145  0.42757  1.0000
  H   H1414     1.0  0.52448  0.52313  0.61051  1.0000
  H   H1415     1.0  0.97922  0.51671  0.38948  1.0000
  H   H1416     1.0  0.98610  0.55683  0.37921  1.0000
  H   H1417     1.0  0.59679  0.98907  0.56333  1.0000
  C   C792      1.0  0.51896  0.57084  0.41857  1.0000
  C   C793      1.0  0.52195  0.73926  0.61544  1.0000
  H   H1418     1.0  0.98259  0.82977  0.47405  1.0000
  H   H1419     1.0  0.96773  0.75961  0.40415  1.0000
  H   H1420     1.0  0.51500  0.64939  0.64871  1.0000
  H   H1421     1.0  0.91796  0.98405  0.58085  1.0000
  C   C794      1.0  0.51481  0.54074  0.50505  1.0000
  C   C795      1.0  0.51106  0.71109  0.51985  1.0000
  H   H1422     1.0  0.53493  0.91072  0.54188  1.0000
  H   H1423     1.0  0.53027  0.60467  0.55609  1.0000
  C   C796      1.0  0.99500  0.72179  0.50631  1.0000
  H   H1424     1.0  0.97996  0.53732  0.44323  1.0000
  C   C797      1.0  0.82568  0.50572  0.46378  1.0000
  S   S179      1.0  0.88381  0.50593  0.62065  1.0000
  C   C798      1.0  0.50457  0.98851  0.47683  1.0000
  H   H1425     1.0  0.63864  0.56923  0.64041  1.0000
  C   C799      1.0  0.93037  0.50571  0.34779  1.0000
  H   H1426     1.0  0.61955  0.51440  0.64541  1.0000
  H   H1427     1.0  0.97450  0.00183  0.57336  1.0000
  H   H1428     1.0  0.99211  0.82210  0.37480  1.0000
  H   H1429     1.0  0.95531  0.50265  0.61999  1.0000
  C   C800      1.0  0.51311  0.89568  0.44294  1.0000
  C   C801      1.0  0.50901  0.96947  0.53036  1.0000
  H   H1430     1.0  0.50454  0.63435  0.54160  1.0000
  C   C802      1.0  0.51745  0.85326  0.66587  1.0000
  C   C803      1.0  0.52362  0.52625  0.63616  1.0000
  C   C804      1.0  0.00052  0.79027  0.42994  1.0000
  H   H1431     1.0  0.80540  0.51323  0.44973  1.0000
  C   C805      1.0  0.73347  0.50347  0.55294  1.0000
  H   H1432     1.0  0.51053  0.83149  0.62063  1.0000
  C   C806      1.0  0.50976  0.91274  0.54726  1.0000
  H   H1433     1.0  0.51790  0.55102  0.64110  1.0000
  H   H1434     1.0  0.99781  0.51593  0.58170  1.0000
  C   C807      1.0  0.99797  0.51806  0.48611  1.0000
  H   H1435     1.0  0.68534  0.99838  0.51038  1.0000
  H   H1436     1.0  0.51494  0.51534  0.46210  1.0000
  C   C808      1.0  0.94075  0.99654  0.53721  1.0000
  C   C809      1.0  0.51218  0.50932  0.48712  1.0000
  H   H1437     1.0  0.97503  0.91714  0.66729  1.0000
  C   C810      1.0  0.55515  0.51764  0.65021  1.0000
  H   H1438     1.0  0.50567  0.80524  0.65303  1.0000
  H   H1439     1.0  0.50755  0.97581  0.55551  1.0000
  C   C811      1.0  0.50736  0.61593  0.55952  1.0000
  C   C812      1.0  0.50277  0.91842  0.42203  1.0000
  S   S180      1.0  0.57651  0.50401  0.40274  1.0000
  C   C813      1.0  0.50200  0.76382  0.53777  1.0000
  H   H1440     1.0  0.50238  0.98632  0.41113  1.0000
  H   H1441     1.0  0.00027  0.72528  0.43713  1.0000
  C   C814      1.0  0.99901  0.83594  0.39571  1.0000
  C   C815      1.0  0.58047  0.52246  0.73689  1.0000
  C   C816      1.0  0.55526  0.52273  0.68588  1.0000
  S   S181      1.0  0.56636  0.90144  0.87089  1.0000
  H   H1442     1.0  0.51439  0.55285  0.97129  1.0000
  H   H1443     1.0  0.60053  0.55783  0.78919  1.0000
  H   H1444     1.0  0.56868  0.84443  0.74586  1.0000
  Fe  Fe93      1.0  0.54619  0.92895  0.91035  1.0000
  S   S182      1.0  0.57701  0.95594  0.94384  1.0000
  Fe  Fe94      1.0  0.53312  0.86301  0.88395  1.0000
  H   H1445     1.0  0.56231  0.81271  0.79444  1.0000
  H   H1446     1.0  0.60124  0.56029  0.68348  1.0000
  C   C817      1.0  0.69515  0.51001  0.93895  1.0000
  H   H1447     1.0  0.52879  0.99850  0.92210  1.0000
  H   H1448     1.0  0.55274  0.90204  0.98402  1.0000
  C   C818      1.0  0.54233  0.82793  0.80047  1.0000
  S   S183      1.0  0.58989  0.56470  0.90531  1.0000
  C   C819      1.0  0.61118  0.90751  0.68543  1.0000
  C   C820      1.0  0.59398  0.53912  0.96374  1.0000
  C   C821      1.0  0.58858  0.56612  0.94623  1.0000
  C   C822      1.0  0.58296  0.59437  0.96152  1.0000
  H   H1449     1.0  0.88200  0.99510  0.98336  1.0000
  H   H1450     1.0  0.57896  0.61534  0.94817  1.0000
  H   H1451     1.0  0.92484  0.52583  0.84985  1.0000
  C   C823      1.0  0.92068  0.96339  0.98998  1.0000
  H   H1452     1.0  0.51744  0.81849  0.75822  1.0000
  C   C824      1.0  0.92182  0.50830  0.86860  1.0000
  H   H1453     1.0  0.52599  0.60033  0.67520  1.0000
  H   H1454     1.0  0.88876  0.96930  0.95080  1.0000
  N   N45       1.0  0.58540  0.51610  0.70258  1.0000
  H   H1455     1.0  0.97095  0.91875  0.70930  1.0000
  C   C825      1.0  0.52914  0.84518  0.69896  1.0000
  C   C826      1.0  0.55036  0.75081  0.88016  1.0000
  H   H1456     1.0  0.54915  0.90722  0.68716  1.0000
  H   H1457     1.0  0.57552  0.75123  0.87992  1.0000
  N   N46       1.0  0.53471  0.87228  0.72088  1.0000
  H   H1458     1.0  0.91443  0.00223  0.95793  1.0000
  H   H1459     1.0  0.70253  0.97751  0.93270  1.0000
  C   C827      1.0  0.67291  0.61079  0.88635  1.0000
  H   H1460     1.0  0.56046  0.54564  0.79391  1.0000
  H   H1461     1.0  0.54932  0.56303  0.73921  1.0000
  H   H1462     1.0  0.79972  0.55332  0.89972  1.0000
  C   C828      1.0  0.59024  0.88197  0.69883  1.0000
  C   C829      1.0  0.68019  0.94077  0.95828  1.0000
  H   H1463     1.0  0.55057  0.83084  0.69678  1.0000
  Fe  Fe95      1.0  0.52724  0.92039  0.84221  1.0000
  C   C830      1.0  0.68287  0.55535  0.97326  1.0000
  H   H1464     1.0  0.51044  0.93579  0.70929  1.0000
  Fe  Fe96      1.0  0.54497  0.58272  0.88511  1.0000
  S   S184      1.0  0.87852  0.51802  0.95282  1.0000
  S   S185      1.0  0.51104  0.54568  0.86998  1.0000
  S   S186      1.0  0.85381  0.51757  0.70568  1.0000
  C   C831      1.0  0.68953  0.99562  0.97944  1.0000
  C   C832      1.0  0.53234  0.98045  0.74925  1.0000
  H   H1465     1.0  0.60119  0.51462  0.75041  1.0000
  H   H1466     1.0  0.85853  0.52936  0.77134  1.0000
  C   C833      1.0  0.50196  0.72119  0.87951  1.0000
  C   C834      1.0  0.57293  0.99674  0.94561  1.0000
  H   H1467     1.0  0.65796  0.55750  0.91688  1.0000
  C   C835      1.0  0.90028  0.98366  0.96912  1.0000
  H   H1468     1.0  0.50602  0.89955  0.75220  1.0000
  H   H1469     1.0  0.68365  0.60091  0.86499  1.0000
  C   C836      1.0  0.57625  0.56174  0.78126  1.0000
  H   H1470     1.0  0.79676  0.54300  0.94020  1.0000
  H   H1471     1.0  0.60247  0.87207  0.71927  1.0000
  H   H1472     1.0  0.66146  0.98224  0.93843  1.0000
  H   H1473     1.0  0.64616  0.50907  0.92307  1.0000
  H   H1474     1.0  0.97386  0.89568  0.94861  1.0000
  C   C837      1.0  0.98144  0.90568  0.68959  1.0000
  H   H1475     1.0  0.67613  0.63653  0.88614  1.0000
  H   H1476     1.0  0.70189  0.93196  0.96919  1.0000
  H   H1477     1.0  0.93263  0.51756  0.89031  1.0000
  C   C838      1.0  0.68357  0.56126  0.91663  1.0000
  H   H1478     1.0  0.61019  0.96026  0.84605  1.0000
  N   N47       1.0  0.96817  0.92573  0.98864  1.0000
  C   C839      1.0  0.60821  0.98482  0.85420  1.0000
  H   H1479     1.0  0.97163  0.88165  0.68933  1.0000
  H   H1480     1.0  0.78796  0.58233  0.92776  1.0000
  C   C840      1.0  0.94684  0.94730  0.97081  1.0000
  H   H1481     1.0  0.62742  0.54361  0.71063  1.0000
  H   H1482     1.0  0.67693  0.60853  0.93590  1.0000
  H   H1483     1.0  0.89656  0.50491  0.87300  1.0000
  H   H1484     1.0  0.92586  0.54812  0.99011  1.0000
  C   C841      1.0  0.61112  0.53759  0.69121  1.0000
  H   H1485     1.0  0.68740  0.58061  0.97737  1.0000
  C   C842      1.0  0.57346  0.55689  0.74607  1.0000
  C   C843      1.0  0.50707  0.50291  0.79148  1.0000
  C   C844      1.0  0.53448  0.72195  0.87901  1.0000
  C   C845      1.0  0.75220  0.54779  0.91603  1.0000
  S   S187      1.0  0.55496  0.81472  0.88340  1.0000
  H   H1486     1.0  0.55088  0.84797  0.81467  1.0000
  C   C846      1.0  0.58316  0.59571  0.99416  1.0000
  C   C847      1.0  0.68806  0.59721  0.91551  1.0000
  C   C848      1.0  0.55809  0.89534  0.70814  1.0000
  H   H1487     1.0  0.58206  0.99816  0.81380  1.0000
  S   S188      1.0  0.51656  0.88896  0.92647  1.0000
  S   S189      1.0  0.50954  0.95094  0.88070  1.0000
  C   C849      1.0  0.73285  0.55248  0.94613  1.0000
  H   H1488     1.0  0.55932  0.98527  0.84655  1.0000
  H   H1489     1.0  0.65714  0.55336  0.97104  1.0000
  H   H1490     1.0  0.64751  0.60569  0.88609  1.0000
  H   H1491     1.0  0.75187  0.52295  0.90866  1.0000
  S   S190      1.0  0.51127  0.60768  0.91573  1.0000
  H   H1492     1.0  0.71301  0.60386  0.91521  1.0000
  H   H1493     1.0  0.61452  0.92672  0.70261  1.0000
  H   H1494     1.0  0.56210  0.91441  0.72552  1.0000
  H   H1495     1.0  0.60612  0.98468  0.88001  1.0000
  C   C850      1.0  0.52584  0.83937  0.77109  1.0000
  S   S191      1.0  0.54178  0.93670  0.79432  1.0000
  S   S192      1.0  0.53653  0.61431  0.84402  1.0000
  H   H1496     1.0  0.54738  0.70036  0.87789  1.0000
  C   C851      1.0  0.98864  0.90931  0.96521  1.0000
  H   H1497     1.0  0.58949  0.57375  0.73489  1.0000
  H   H1498     1.0  0.74885  0.99495  0.94818  1.0000
  N   N48       1.0  0.69862  0.54477  0.94373  1.0000
  H   H1499     1.0  0.54844  0.54742  0.68966  1.0000
  C   C852      1.0  0.52058  0.96661  0.77635  1.0000
  C   C853      1.0  0.53391  0.77909  0.88171  1.0000
  C   C854      1.0  0.85028  0.50563  0.76846  1.0000
  H   H1500     1.0  0.93540  0.93435  0.95128  1.0000
  H   H1501     1.0  0.51145  0.82899  0.70872  1.0000
  H   H1502     1.0  0.96025  0.96660  0.95990  1.0000
  H   H1503     1.0  0.55700  0.87874  0.76584  1.0000
  H   H1504     1.0  0.74323  0.56208  0.89654  1.0000
  H   H1505     1.0  0.52585  0.81420  0.81494  1.0000
  H   H1506     1.0  0.51448  0.51020  0.81439  1.0000
  H   H1507     1.0  0.74414  0.53761  0.96406  1.0000
  C   C855      1.0  0.54816  0.85938  0.75077  1.0000
  H   H1508     1.0  0.67547  0.92690  0.93685  1.0000
  H   H1509     1.0  0.50537  0.85305  0.77881  1.0000
  H   H1510     1.0  0.69147  0.55108  0.89410  1.0000
  C   C856      1.0  0.78618  0.55723  0.92138  1.0000
  H   H1511     1.0  0.51876  0.95029  0.98824  1.0000
  C   C857      1.0  0.68355  0.97526  0.94992  1.0000
  H   H1512     1.0  0.55415  0.97251  0.73958  1.0000
  H   H1513     1.0  0.59787  0.51719  0.95196  1.0000
  H   H1514     1.0  0.56963  0.58605  0.78726  1.0000
  H   H1515     1.0  0.73635  0.57692  0.95443  1.0000
  C   C858      1.0  0.50140  0.77832  0.88203  1.0000
  H   H1516     1.0  0.58770  0.86362  0.68066  1.0000
  C   C859      1.0  0.57949  0.99969  0.83948  1.0000
  H   H1517     1.0  0.99815  0.94848  0.93280  1.0000
  H   H1518     1.0  0.66037  0.93728  0.97451  1.0000
  H   H1519     1.0  0.55832  0.50467  0.89519  1.0000
  H   H1520     1.0  0.66806  0.99259  0.99371  1.0000
  C   C860      1.0  0.88542  0.51844  0.99338  1.0000
  C   C861      1.0  0.59386  0.54042  0.99649  1.0000
  H   H1521     1.0  0.70848  0.98449  0.99317  1.0000
  H   H1522     1.0  0.99943  0.96424  0.99854  1.0000
  H   H1523     1.0  0.55652  0.66660  0.98593  1.0000
  H   H1524     1.0  0.97863  0.50807  0.99398  1.0000
  H   H1525     1.0  0.53594  0.50877  0.69591  1.0000
  H   H1526     1.0  0.56033  0.50885  0.74588  1.0000
  H   H1527     1.0  0.62965  0.99763  0.84744  1.0000
  H   H1528     1.0  0.92636  0.89730  0.99265  1.0000
  H   H1529     1.0  0.96279  0.85582  0.99049  1.0000
  C   C862      1.0  0.50452  0.88869  0.72862  1.0000
  C   C863      1.0  0.50578  0.55000  0.99551  1.0000
  H   H1530     1.0  0.63428  0.89757  0.67969  1.0000
  H   H1531     1.0  0.50833  0.61893  0.70875  1.0000
  H   H1532     1.0  0.50540  0.64453  0.97339  1.0000
  H   H1533     1.0  0.64842  0.50717  0.67472  1.0000
  C   C864      1.0  0.50389  0.60386  0.68806  1.0000
  H   H1534     1.0  0.70494  0.50304  0.91600  1.0000
  H   H1535     1.0  0.53699  0.70246  0.99625  1.0000
  H   H1536     1.0  0.66762  0.56192  0.67024  1.0000
