data_image0
_chemical_formula_structural       Fe2S2FeHFeCS2FeSFeSHFe2S2FeS2FeS2FeSCS2HFeS2FeS2FeSFeS4C3HC2H2C6H4C6H5CH3CHC6H5CHC6H12CH4C2H2CHC2H2NCH3CH2NHCHNC7HC2H23S2HNC12H28NCHCFeH3C2H7CH3CSC2H4CHCHCHC3HCH2CH2C2H2C2HNH6SCHCHCHCH9SC3HCHSH2CH3C3H5CH3CHCH2CH8CH5CHC2H3CHCH2CSHFeSHC2H3CH3CHC2H4C2HCNHCHCH2Fe2S2FeCFeHSHSH6SCHFeS2FeS2FeSFeS3H10SHCHSC2H2CHC4H3SC5SH5C5H3CH3C2H4CHC2HC2H5CH2C2H5C4H7C2H2CHCH2CHNCH2CH4NC2HC3SCHCH5CH9CH2CH8C2HC2H2NC5HC6H10SH9CH3C2H5CH2C4H2CNCHFeC3HSHSHC2HCH2CH2C2HSHCHCH4C2HC3NHC4HC2HCH2CNH2C2FeHC2H3CH3CH4CHCH3CHFeHCHSH2FeH2CSHSH2CH3CH7C2SH3CH3SCH3CH4SH2CHC2H7S2H5C2HSHNH7SH2CH2Fe2HCH2CHCH5CHCHCH5C2H5CFeH2NFeC7HCHC4H10SH3C2HC3HC2NH3CH4CHCH4CHC2HCH3C4HSCHCFeS2FeCFeCS2FeSFeSHFe2S2FeS2FeS2FeSH2SHFeS2FeS2FeSFeS3C3HCH3C7H4C6H5CH5C6H5CHC6H4SHNCH8C3HCS2CH7NC11H7CH13C2H4CH2CSNC12H23CH2FeHNC9H21CH6CHCHC2NC12H23CHCHSCHC2H8CHCH3SC3H4C2H6CH3C4NC2H5SHCH5C3H5CHCH3SH2C4HCH2CH2C3H2CHCNH4Fe2S2FeH2CSHSCFeCFeH2SCHFeS2FeS2FeSFeS3H2C2HCH2CH3CHC3H2CHSC3H4C7H2CHC5H3C4HCH4CHSH2CHCHCH4C2H3C3H7C2H2C4HCHC3HCHSCSH2CHCHC3HNH2CSHCH4CHSH4C2HCH10NC8HC3H15CH2CH9NHCH4NHCHCH5SCH5CH4CHC2SH2CNC4H3CHC3H8FeHCSHCFeCH9CSH5C2HSH3SH3CHCHFeS3CH2FeHCSCHSNH2CH4SH5SH2CH2CH3CH3CHCH3CHCHC2HC2H2CHCH3CHCHC2H4C2H2CH4C2HCHCHCHCHCHCH2CH5NH7CFeHCH4CHCH4FeH2CH4SCHCH3FeHCHC2H3SH2SCH2C2HCH2CNHCH8C2HCH10NC2H4C4HSHCH4CHCHC2H4CH6CHC2HC4HC2H7C3H4NC5H2CH10SH3CH2FeC3NCHCH2CH4SH7CH2CH4CH2C2H4CH2CH3C2HCSH3NHCH3CSH3C2H2C2H3CHCH7CHCHC3HCH2C2H2CHCHFeS2FeS2FeSFeS3HCFeS3Fe3SH3SCFeSHFeSHSFeS2Fe2CH3C3H3C2H2CHC6H4C6H4C6H4C6H4C3HCH3CHCH4C2HCH4NH4CHNC12H16CH9NC2H3C2HC2H4SH3NH4SH3SCH4CSHCS2HSCH2SH3CH2SCH2CH3CHCH3CH4CH3C2H2CHCNC3H9CH6CH3FeHC4H3C3HC4H3CNH2FeC2H4CHC2H3C2H3CHSH3CHC2SH3CH5NC2H2CHCHC3H3SHCHSHFeSHFeS2FeHFeS3FeS2FeS2FeSFeS3HSFeS2Fe3HS2FeS2Fe3HS2C3HC2H3SHCSC6H4C2H2C2HCHC6H4C6H2C8H2NC12H21CH6CHCHSHCH2CH2CH9C2HC2H2NH4CH2NCHC3HCHC2H17NCNC4H8CH5CH5CH6CH5CHCHCHCH6CHCSH14S2CHCHCHNC12H6NH2CHCHCHSH2CHCHSH2CH3C2H3CHCH4CH4CH5CH2SHSHCH2CH2CH6CH3CH2C2H7CH4C2H2C2H3CSFeHCH2C4HFeCH2C2H6C3H3SH3CH2CH5C2H3CSH5C2H2C2H9C2H3CH6CH9CHC3NC2H3NC3H5CHCH7CH3CHFeS2FeS2FeSFeS3HCFeS3FeNFeSHSFeSCFeSHFeSFeSHSHFe2C2HCHCH3SCH2CH2C6H4C6H4C6H4C6H4C2HCHCHC2H6C2HC2H8CH7C2HSCH2CH3C4HCH2C2H3C4H3C2H3CHCH4C2H2SHCH3CH2NC12H23CH11C2H6SH2SH6C2HC2H6C5H2C2H4C3HCH2FeCHSH2CHCNHSH9CH2SH3CH2CH3CNH3CH2CH2CH5C2H2C2H3CH2CNH2C2H3C2HFeSCFeS2FeHFeS3FeS2FeS2FeSFeS5FeS2Fe3HS2FeS2Fe3CS2C2H3CH7C6H4CHCHC3H2C6H4C6H3C7H2CH4SH2CHCH3C2H5C2H2C2H4CHC2H2CH4CH2C2H3C2H2CHNC12H34CHCSCH3CH4C2H3C2H3CSCH4CHCH2CNCH2C3H2NCH9CH3CH2S2H5C3H2CH2CH2CHCHCH4CH4NHCH2CH3NH2CHC3HCH3NH4C3HSCH2C2HCHC3H3CH5NH4C2H2CHCH2CSC2H2SH4CH2CH4CH2CH2NH2CH2C4H3NHFeSCFeSFeSHSFeSH2FeS2FeS2FeS2FeSFeS3FeSHFeSCFeSFeS2CH2SHCHCH3SC6H4C6H6C3H3C6H5CH3C2H6CHNHCH2CHC2H5CHCHCH2NHC2HC2HNC12H28CH2C2H2C2H4CH7NC12H19CH3C2SH2FeH2CH2CH2CH3C3H5C2HC3HC4SCH3CHC2H7CHCFeH2CHCFeNH8CHCH5CHSH2C2HCH3C4H2CHSHCH4CHCH2CH2CNSH2CHCH2CHCH8CSH5C2HCH2CHCSHFeHFeS2CFeHFeCS3H2SH3FeS2FeS2FeSFeS3H6CH5C4H3CH2C3H2C5H3NC3H2CH3C6H3CHC3FeHCH2CHC2H2C2HCH2CH2CSC2HNCHCHCHCH2SH3CFeHC2H2CHCNHC2HCHCH2NCHC2HC2NH8CH2CHCH6CHCH2C2H3CHCH2CH2CHCH4CHCHCNH3CH2CH4C2H3CHCH3CH4SNC12H13SCH5C2H5CH4C2H2SHCH3FeHCHCH2FeHCSH2CHFeHSHC2S2CH7CHSFeH2CH4C4H3CH10CFeH2CHC2HCH4C2SCH3CH5S2HCHC2HNCHC3H3SHCH2CHSH22CH5CH2C6HCHCHCHC2H3C2H2C2FeSHNCH2CH2C2H3CH7CHCH3NH3CHCHC2SH2SCFeCSFeSHFeSFeSFeSFeSCFe2S2FeS2FeS2FeSFeS3FeS2FeS2FeSC2SNCHCHCHC3HC7NH3C6H4CHC2H3C7H4NC6H3CSH2SH2C2H2CH2C3H12SHCH5CHCH2CH3SHNC7HCHC2H2CH11CHC2H9C2H8SHSHCH3CH2CNCH6CHCH5CH2C2HSH4CH2CSH2C3HC2H3CH5CHCH2NC6H16NC12H28C2H2C5H5CHCH2SHCH2C2HC2H3C2HCH4CH2CH2CHCSHCHC2HCSCHCHCHCH6CH2CHCH5FeH9CH3CH2CH6CH2SCHCFeS2Fe2SFeHS3H2SC3FeS2FeS2FeSFeHS2CH4C2H4C3H5CHNC3H2CH2C3H2C4H2CH3FeC4H4C2H2C2H2SH2CHCH2CH5CHSC2H3C5H3CH3CHCH2C2H4CHCH3NCH6CH2CHFeHCH3CH2CH3C2HCHCH8C2H3CHCHCHSHCHCHCH2CHCSHCH5C2NH8C8SC4HCSH2SCH4C2H2FeH5CH4C3NH2CHC2HC2H4CH2CH2CH2CH5CHNHC2HCH4CH2CHC2SHCS2CH2FeHSH2CS2H2SH3C2H5CH3CHC4H4CH3CH3CH2CH2CH5CH2CH2CHCH10CHCSH2CFeH2CHFeHCH3CH2NHCNC3FeHCH3C3H6FeSH6CH2SCHCH2CHCH4C2H6CH2C3H2CH2CH7CHCH2SHSH5SH3SC2H2CH2NC2H2C2HCHCH2CH2C2HCH2CHCHCHCH3C2NCH2C2H6FeHCH4C2H3CH2C2H2C2HCHCHCH4C2H6CH7NCH3C2H2CFeH7CSH8CH9C2H2CH2SFeS2FeS2FeHFeS4FeS2FeSFeSH3FeS2Fe3HS2FeHCFeH3SCHSHCH2CHCH3C6H4C6H4C6H4C6H2CHCH2C2HCHCH7CSNCNH3CH4CHFeH6C2H3CHCHCH12NC11H20SC2H5C4NCH11SH11CSH3CHC2HC2HCHCH3NH4CH3CH6C3H2C2H4CHC2SH3C2H6C9H3C4H7C2H2CHC2SH2C2HSC2HCH3CHC2H2C2SH3CH4CHFeS2FeS2FeSFeS3FeS2FeS2FeSFeS3HCFeS2Fe3HS2FeS2CFeH2S2HC2HC2H4C6H4C6H3C6H4C6H4C6H7CH2C2HCHCHCNHC2H2CSH3FeH7C3H5CHNCFeCNC12H25CHCHCH2C3H6C3H3C2H3CHCHCH3CH7CNCHCH3NC12H28SH2NH6C2H4CSHCH3CH4C2H4CH5CHCH2C2NH2SH2CH4C3H4NCH3CHCH8CH9SCHCHCH4C2H2SCH5C3H2CH7CH10CH5CHC4HC2H4CH5CH3CH3C4SC3H4CHCFeNH5NC4FeC4H10CH4CH2NHNHSH3C2H4SH3NH2C2H4CHCSC2HCHCHCHCHC2H6C2H2CHCHCHCHC2HCH7CH2C3HCHCHFeS2FeS2FeHFeS3HFeSHFeSFeSCHCFeS2Fe3HS2FeHCFeCH2SCH2C2H2CH5C6H4C6SH3C6H4C6H4CHSH5CH4CH3SHNC8HCHCH14CH2CH6CH6C3H3C2H2FeCHC2H3CHSHC2H17CHC2H3C2HNH5C2NC5HCH4CHCH12C2H4SNHSH4C2HC2H2SH9CHSHC2SHCH3C7HCNH3CH2CH2C2H4SH3SCHCH3CHC5HSH2CSHCHFeS2FeS2FeSFeS3FeS2FeSHFeSFeS3HCFeS2Fe3HS2FeS2HFe2CS2H3C2H5C6H4CH4CSH2C6H4C6H4C6H4CHCHCH2CHCH2SCH3NC12H27CH4CH2C2H4CH4CHCH2CHC3H8CHCH2C3HCH2C2H5NC8HC2H16CH8NC12H27SCH3CH4CHC3HCNC3H4C2H3C2NC2H4C2FeHSCSHCH8CH2SCH4SH2CH2C3HCNH2NCH6SHC4
_chemical_formula_sum              "Fe256 S512 H4096 C2304 N128"
_cell_length_a       71.5604
_cell_length_b       48.5137
_cell_length_c       62.9057
_cell_angle_alpha    89.5759
_cell_angle_beta     88.8166
_cell_angle_gamma    88.6213

_space_group_name_H-M_alt    "P 1"
_space_group_IT_number       1

loop_
  _space_group_symop_operation_xyz
  'x, y, z'

loop_
  _atom_site_type_symbol
  _atom_site_label
  _atom_site_symmetry_multiplicity
  _atom_site_fract_x
  _atom_site_fract_y
  _atom_site_fract_z
  _atom_site_occupancy
  Fe  Fe1       1.0  0.03450  0.20135  0.06766  1.0000
  Fe  Fe2       1.0  0.06745  0.19386  0.09858  1.0000
  S   S1        1.0  0.04900  0.18097  0.12586  1.0000
  S   S2        1.0  0.09892  0.19566  0.09993  1.0000
  Fe  Fe3       1.0  0.03477  0.15484  0.10192  1.0000
  H   H1        1.0  0.15472  0.47927  0.19335  1.0000
  Fe  Fe4       1.0  0.03004  0.21567  0.11455  1.0000
  C   C1        1.0  0.03481  0.33653  0.13901  1.0000
  S   S3        1.0  0.05444  0.16617  0.07507  1.0000
  S   S4        1.0  0.04960  0.23019  0.08879  1.0000
  Fe  Fe5       1.0  0.03325  0.46351  0.17430  1.0000
  S   S5        1.0  0.04921  0.46135  0.20475  1.0000
  Fe  Fe6       1.0  0.04139  0.40191  0.16515  1.0000
  S   S6        1.0  0.05805  0.39573  0.19479  1.0000
  H   H2        1.0  0.10342  0.27966  0.07144  1.0000
  Fe  Fe7       1.0  0.03504  0.42073  0.21113  1.0000
  Fe  Fe8       1.0  0.07077  0.43632  0.18618  1.0000
  S   S7        1.0  0.10202  0.44242  0.18955  1.0000
  S   S8        1.0  0.05574  0.44100  0.15552  1.0000
  Fe  Fe9       1.0  0.18850  0.43554  0.11092  1.0000
  S   S9        1.0  0.20331  0.43934  0.14167  1.0000
  S   S10       1.0  0.15702  0.43310  0.10909  1.0000
  Fe  Fe10      1.0  0.22481  0.43479  0.08416  1.0000
  S   S11       1.0  0.24218  0.43911  0.11338  1.0000
  S   S12       1.0  0.23786  0.43532  0.05046  1.0000
  Fe  Fe11      1.0  0.22331  0.40753  0.12797  1.0000
  S   S13       1.0  0.23496  0.37443  0.14990  1.0000
  C   C2        1.0  0.20593  0.32821  0.01425  1.0000
  S   S14       1.0  0.19903  0.03077  0.11243  1.0000
  S   S15       1.0  0.20720  0.40114  0.09820  1.0000
  H   H3        1.0  0.14307  0.14277  0.19167  1.0000
  Fe  Fe12      1.0  0.17149  0.20143  0.18790  1.0000
  S   S16       1.0  0.18928  0.18645  0.16049  1.0000
  S   S17       1.0  0.13981  0.20135  0.18824  1.0000
  Fe  Fe13      1.0  0.20545  0.21667  0.21458  1.0000
  S   S18       1.0  0.22591  0.20264  0.18878  1.0000
  S   S19       1.0  0.20951  0.23684  0.24709  1.0000
  Fe  Fe14      1.0  0.20608  0.22415  0.16636  1.0000
  S   S20       1.0  0.21272  0.24994  0.13726  1.0000
  Fe  Fe15      1.0  0.20725  0.16590  0.18486  1.0000
  S   S21       1.0  0.21870  0.12165  0.18135  1.0000
  S   S22       1.0  0.18692  0.24061  0.19204  1.0000
  S   S23       1.0  0.18826  0.17832  0.21239  1.0000
  S   S24       1.0  0.01737  0.42453  0.18177  1.0000
  C   C3        1.0  0.22940  0.24698  0.26141  1.0000
  C   C4        1.0  0.14426  0.12430  0.18146  1.0000
  C   C5        1.0  0.19161  0.16611  0.10059  1.0000
  H   H4        1.0  0.12103  0.02949  0.14004  1.0000
  C   C6        1.0  0.24192  0.26749  0.29359  1.0000
  C   C7        1.0  0.22663  0.25965  0.28135  1.0000
  H   H5        1.0  0.23955  0.27694  0.30893  1.0000
  H   H6        1.0  0.21253  0.26315  0.28747  1.0000
  C   C8        1.0  0.20401  0.05505  0.13254  1.0000
  C   C9        1.0  0.21591  0.04884  0.14938  1.0000
  C   C10       1.0  0.21994  0.06929  0.16439  1.0000
  C   C11       1.0  0.21209  0.09612  0.16285  1.0000
  C   C12       1.0  0.19989  0.10212  0.14625  1.0000
  C   C13       1.0  0.19598  0.08178  0.13116  1.0000
  H   H7        1.0  0.22224  0.02844  0.15065  1.0000
  H   H8        1.0  0.22939  0.06436  0.17714  1.0000
  H   H9        1.0  0.19356  0.12248  0.14492  1.0000
  H   H10       1.0  0.18672  0.08681  0.11824  1.0000
  C   C14       1.0  0.21900  0.28442  0.14096  1.0000
  C   C15       1.0  0.21425  0.30430  0.12556  1.0000
  C   C16       1.0  0.21915  0.33195  0.12808  1.0000
  C   C17       1.0  0.22920  0.33976  0.14577  1.0000
  C   C18       1.0  0.23450  0.31969  0.16080  1.0000
  C   C19       1.0  0.22917  0.29216  0.15859  1.0000
  H   H11       1.0  0.20657  0.29835  0.11175  1.0000
  H   H12       1.0  0.21524  0.34712  0.11625  1.0000
  H   H13       1.0  0.24247  0.32554  0.17442  1.0000
  H   H14       1.0  0.23306  0.27690  0.17043  1.0000
  H   H15       1.0  0.03133  0.47169  0.31306  1.0000
  C   C20       1.0  0.24866  0.40794  0.03562  1.0000
  H   H16       1.0  0.24431  0.37640  0.05926  1.0000
  H   H17       1.0  0.22284  0.33764  0.04153  1.0000
  H   H18       1.0  0.12845  0.46750  0.22070  1.0000
  C   C21       1.0  0.10893  0.04474  0.10990  1.0000
  H   H19       1.0  0.06331  0.08691  0.07399  1.0000
  C   C22       1.0  0.14199  0.43568  0.13167  1.0000
  C   C23       1.0  0.14889  0.43726  0.15226  1.0000
  C   C24       1.0  0.13642  0.43889  0.16982  1.0000
  C   C25       1.0  0.11703  0.43942  0.16699  1.0000
  C   C26       1.0  0.11014  0.43770  0.14644  1.0000
  C   C27       1.0  0.12258  0.43574  0.12887  1.0000
  H   H20       1.0  0.16378  0.43703  0.15463  1.0000
  H   H21       1.0  0.14172  0.43921  0.18575  1.0000
  H   H22       1.0  0.09525  0.43795  0.14399  1.0000
  H   H23       1.0  0.11711  0.43441  0.11301  1.0000
  H   H24       1.0  0.08659  0.01653  0.17498  1.0000
  C   C28       1.0  0.21600  0.39160  0.25901  1.0000
  H   H25       1.0  0.21832  0.14841  0.12902  1.0000
  C   C29       1.0  0.10999  0.19692  0.12463  1.0000
  C   C30       1.0  0.09978  0.19646  0.14381  1.0000
  C   C31       1.0  0.10906  0.19790  0.16323  1.0000
  C   C32       1.0  0.12860  0.19958  0.16360  1.0000
  C   C33       1.0  0.13877  0.20013  0.14440  1.0000
  C   C34       1.0  0.12949  0.19881  0.12500  1.0000
  H   H26       1.0  0.08473  0.19525  0.14370  1.0000
  H   H27       1.0  0.10104  0.19796  0.17800  1.0000
  H   H28       1.0  0.15375  0.20198  0.14442  1.0000
  H   H29       1.0  0.13746  0.19938  0.11020  1.0000
  H   H30       1.0  0.25930  0.10934  0.11304  1.0000
  H   H31       1.0  0.12439  0.13011  0.22668  1.0000
  H   H32       1.0  0.09290  0.05943  0.07084  1.0000
  H   H33       1.0  0.06597  0.12544  0.13265  1.0000
  H   H34       1.0  0.02846  0.01409  0.13194  1.0000
  H   H35       1.0  0.02062  0.35184  0.09186  1.0000
  H   H36       1.0  0.02943  0.30487  0.08011  1.0000
  H   H37       1.0  0.20244  0.38343  0.25396  1.0000
  C   C35       1.0  0.08581  0.01602  0.12970  1.0000
  H   H38       1.0  0.13271  0.08345  0.17930  1.0000
  H   H39       1.0  0.04946  0.32693  0.10965  1.0000
  H   H40       1.0  0.11759  0.18041  0.22535  1.0000
  H   H41       1.0  0.11283  0.15463  0.19211  1.0000
  C   C36       1.0  0.03018  0.05572  0.11952  1.0000
  C   C37       1.0  0.13005  0.10243  0.18891  1.0000
  H   H42       1.0  0.11674  0.05576  0.20840  1.0000
  H   H43       1.0  0.09619  0.03816  0.23719  1.0000
  C   C38       1.0  0.07676  0.04144  0.09764  1.0000
  H   H44       1.0  0.09305  0.17447  0.23064  1.0000
  C   C39       1.0  0.14100  0.05510  0.12420  1.0000
  C   C40       1.0  0.01777  0.29852  0.15488  1.0000
  H   H45       1.0  0.20816  0.18478  0.32277  1.0000
  H   H46       1.0  0.23846  0.29315  0.00714  1.0000
  N   N1        1.0  0.24437  0.16506  0.11733  1.0000
  C   C41       1.0  0.25034  0.38114  0.04378  1.0000
  H   H47       1.0  0.08481  0.26003  0.08322  1.0000
  H   H48       1.0  0.08475  0.03706  0.21205  1.0000
  H   H49       1.0  0.11013  0.98923  0.10358  1.0000
  C   C42       1.0  0.22559  0.37079  0.27378  1.0000
  H   H50       1.0  0.22715  0.23358  0.33004  1.0000
  H   H51       1.0  0.22758  0.35124  0.26500  1.0000
  N   N2        1.0  0.25701  0.36193  0.29356  1.0000
  H   H52       1.0  0.14367  0.99030  0.18823  1.0000
  C   C43       1.0  0.04854  0.29077  0.04351  1.0000
  H   H53       1.0  0.05007  0.05674  0.06802  1.0000
  N   N3        1.0  0.09127  0.29071  0.14581  1.0000
  C   C44       1.0  0.09111  0.32149  0.14183  1.0000
  C   C45       1.0  0.08899  0.27558  0.12505  1.0000
  C   C46       1.0  0.07478  0.28458  0.16039  1.0000
  C   C47       1.0  0.10875  0.28070  0.15684  1.0000
  C   C48       1.0  0.12762  0.28653  0.14550  1.0000
  C   C49       1.0  0.09120  0.34009  0.16171  1.0000
  C   C50       1.0  0.06983  0.25371  0.16311  1.0000
  H   H54       1.0  0.08872  0.30692  0.09973  1.0000
  C   C51       1.0  0.14404  0.27739  0.15928  1.0000
  C   C52       1.0  0.05487  0.24984  0.18048  1.0000
  H   H55       1.0  0.07842  0.32770  0.13282  1.0000
  H   H56       1.0  0.10305  0.32763  0.13153  1.0000
  H   H57       1.0  0.09445  0.25394  0.12641  1.0000
  H   H58       1.0  0.07390  0.27374  0.12144  1.0000
  H   H59       1.0  0.06197  0.29554  0.15477  1.0000
  H   H60       1.0  0.07709  0.29272  0.17661  1.0000
  H   H61       1.0  0.10918  0.28899  0.17325  1.0000
  H   H62       1.0  0.10864  0.25797  0.15902  1.0000
  H   H63       1.0  0.12911  0.30878  0.14206  1.0000
  H   H64       1.0  0.12889  0.27456  0.13056  1.0000
  H   H65       1.0  0.07753  0.33928  0.17039  1.0000
  H   H66       1.0  0.10243  0.33360  0.17260  1.0000
  H   H67       1.0  0.08212  0.24105  0.16776  1.0000
  H   H68       1.0  0.06439  0.24532  0.14813  1.0000
  H   H69       1.0  0.19087  0.33009  0.01035  1.0000
  H   H70       1.0  0.11188  0.29641  0.10702  1.0000
  H   H71       1.0  0.15745  0.28136  0.15070  1.0000
  H   H72       1.0  0.14375  0.28872  0.17456  1.0000
  H   H73       1.0  0.14354  0.25496  0.16276  1.0000
  H   H74       1.0  0.06020  0.25580  0.19621  1.0000
  H   H75       1.0  0.04214  0.26246  0.17705  1.0000
  H   H76       1.0  0.05089  0.22786  0.18123  1.0000
  H   H77       1.0  0.11490  0.04937  0.09383  1.0000
  S   S25       1.0  0.03108  0.10808  0.10274  1.0000
  S   S26       1.0  0.04193  0.37107  0.13803  1.0000
  H   H78       1.0  0.02417  0.32842  0.05961  1.0000
  N   N4        1.0  0.17476  0.35995  0.18591  1.0000
  C   C53       1.0  0.18088  0.33834  0.20185  1.0000
  C   C54       1.0  0.15654  0.37288  0.19372  1.0000
  C   C55       1.0  0.17265  0.34652  0.16457  1.0000
  C   C56       1.0  0.18890  0.38242  0.18345  1.0000
  C   C57       1.0  0.19612  0.39481  0.20430  1.0000
  C   C58       1.0  0.20007  0.32400  0.19722  1.0000
  C   C59       1.0  0.16445  0.36531  0.14676  1.0000
  C   C60       1.0  0.13948  0.35374  0.19493  1.0000
  C   C61       1.0  0.12236  0.36919  0.20421  1.0000
  C   C62       1.0  0.20903  0.41885  0.19953  1.0000
  C   C63       1.0  0.20636  0.30626  0.21607  1.0000
  C   C64       1.0  0.16417  0.35020  0.12555  1.0000
  H   H79       1.0  0.17078  0.32131  0.20268  1.0000
  H   H80       1.0  0.18087  0.34711  0.21817  1.0000
  H   H81       1.0  0.15812  0.38134  0.20994  1.0000
  H   H82       1.0  0.15263  0.39091  0.18367  1.0000
  H   H83       1.0  0.16394  0.32796  0.16609  1.0000
  H   H84       1.0  0.18650  0.33871  0.15847  1.0000
  H   H85       1.0  0.20126  0.37507  0.17392  1.0000
  H   H86       1.0  0.18297  0.39997  0.17411  1.0000
  H   H87       1.0  0.20425  0.37912  0.21337  1.0000
  H   H88       1.0  0.18442  0.40267  0.21456  1.0000
  H   H89       1.0  0.19894  0.31021  0.18333  1.0000
  H   H90       1.0  0.21114  0.33905  0.19380  1.0000
  H   H91       1.0  0.17298  0.38385  0.14413  1.0000
  H   H92       1.0  0.14989  0.37215  0.15073  1.0000
  H   H93       1.0  0.13590  0.34631  0.17892  1.0000
  H   H94       1.0  0.14211  0.33563  0.20536  1.0000
  H   H95       1.0  0.12513  0.37678  0.22044  1.0000
  H   H96       1.0  0.11857  0.38704  0.19393  1.0000
  H   H97       1.0  0.11026  0.35533  0.20533  1.0000
  H   H98       1.0  0.21431  0.42720  0.21459  1.0000
  H   H99       1.0  0.22121  0.41190  0.18951  1.0000
  H   H100      1.0  0.20138  0.43570  0.19109  1.0000
  H   H101      1.0  0.20887  0.31930  0.23011  1.0000
  H   H102      1.0  0.19567  0.29082  0.22037  1.0000
  H   H103      1.0  0.21958  0.29495  0.21181  1.0000
  H   H104      1.0  0.17862  0.34450  0.12016  1.0000
  H   H105      1.0  0.15582  0.33129  0.12692  1.0000
  H   H106      1.0  0.15786  0.36399  0.11331  1.0000
  N   N5        1.0  0.10961  0.11088  0.18799  1.0000
  C   C65       1.0  0.04067  0.31905  0.12239  1.0000
  H   H107      1.0  0.07314  0.00338  0.12808  1.0000
  C   C66       1.0  0.16431  0.11311  0.18323  1.0000
  Fe  Fe16      1.0  0.22072  0.47086  0.12459  1.0000
  H   H108      1.0  0.02908  0.11391  0.14931  1.0000
  H   H109      1.0  0.22430  0.13882  0.10250  1.0000
  H   H110      1.0  0.03068  0.04922  0.10311  1.0000
  C   C67       1.0  0.02887  0.03574  0.13584  1.0000
  C   C68       1.0  0.02707  0.44988  0.31452  1.0000
  H   H111      1.0  0.06823  0.05157  0.13994  1.0000
  H   H112      1.0  0.09630  0.00187  0.13710  1.0000
  H   H113      1.0  0.08357  0.37755  0.14407  1.0000
  H   H114      1.0  0.07895  0.14103  0.16655  1.0000
  H   H115      1.0  0.06584  0.07094  0.04832  1.0000
  H   H116      1.0  0.25191  0.39164  0.26842  1.0000
  H   H117      1.0  0.07064  0.98937  0.08490  1.0000
  C   C69       1.0  0.06373  0.06683  0.06558  1.0000
  H   H118      1.0  0.17417  0.12932  0.17815  1.0000
  H   H119      1.0  0.09199  0.05290  0.14849  1.0000
  H   H120      1.0  0.24069  0.17721  0.29028  1.0000
  C   C70       1.0  0.20839  0.34149  0.03595  1.0000
  S   S27       1.0  0.02678  0.41218  0.24610  1.0000
  C   C71       1.0  0.02340  0.32619  0.15537  1.0000
  C   C72       1.0  0.08407  0.12111  0.15979  1.0000
  H   H121      1.0  0.03437  0.43762  0.30187  1.0000
  H   H122      1.0  0.10890  0.25184  0.08949  1.0000
  H   H123      1.0  0.23762  0.20899  0.11602  1.0000
  H   H124      1.0  0.09992  0.12392  0.23258  1.0000
  C   C73       1.0  0.25651  0.41362  0.01539  1.0000
  H   H125      1.0  0.19098  0.98532  0.00865  1.0000
  C   C74       1.0  0.23504  0.18745  0.30489  1.0000
  H   H126      1.0  0.10843  0.37260  0.14797  1.0000
  C   C75       1.0  0.20261  0.18605  0.28957  1.0000
  H   H127      1.0  0.05333  0.27499  0.03175  1.0000
  C   C76       1.0  0.09434  0.37017  0.15539  1.0000
  C   C77       1.0  0.09761  0.28895  0.10464  1.0000
  C   C78       1.0  0.02392  0.28092  0.13838  1.0000
  H   H128      1.0  0.26232  0.19703  0.04836  1.0000
  C   C79       1.0  0.26020  0.26322  0.28584  1.0000
  H   H129      1.0  0.24593  0.14856  0.14940  1.0000
  H   H130      1.0  0.21522  0.15399  0.30830  1.0000
  C   C80       1.0  0.07970  0.04837  0.07372  1.0000
  H   H131      1.0  0.20952  0.30602  0.01586  1.0000
  H   H132      1.0  0.01997  0.28862  0.03416  1.0000
  C   C81       1.0  0.02706  0.04392  0.15707  1.0000
  C   C82       1.0  0.10748  0.16621  0.23301  1.0000
  H   H133      1.0  0.21528  0.19065  0.09242  1.0000
  H   H134      1.0  0.18855  0.17706  0.29151  1.0000
  C   C83       1.0  0.09748  0.08785  0.19635  1.0000
  C   C84       1.0  0.10525  0.06948  0.21466  1.0000
  H   H135      1.0  0.02208  0.39535  0.28967  1.0000
  N   N6        1.0  0.09260  0.02577  0.10815  1.0000
  H   H136      1.0  0.09476  0.07303  0.18344  1.0000
  H   H137      1.0  0.23743  0.10746  0.12744  1.0000
  H   H138      1.0  0.10426  0.06510  0.11630  1.0000
  H   H139      1.0  0.23769  0.32804  0.29492  1.0000
  H   H140      1.0  0.11018  0.09802  0.15509  1.0000
  H   H141      1.0  0.08346  0.09625  0.20147  1.0000
  S   S28       1.0  0.20459  0.46914  0.09435  1.0000
  C   C85       1.0  0.10984  0.13725  0.22375  1.0000
  H   H142      1.0  0.20089  0.20887  0.28929  1.0000
  C   C86       1.0  0.07440  0.02658  0.16718  1.0000
  H   H143      1.0  0.16745  0.10733  0.19992  1.0000
  C   C87       1.0  0.02918  0.09221  0.14548  1.0000
  H   H144      1.0  0.25302  0.23600  0.15437  1.0000
  C   C88       1.0  0.22450  0.15635  0.11383  1.0000
  H   H145      1.0  0.02680  0.26530  0.05530  1.0000
  H   H146      1.0  0.23563  0.19415  0.14156  1.0000
  H   H147      1.0  0.09030  0.14309  0.19880  1.0000
  H   H148      1.0  0.21575  0.36676  0.28724  1.0000
  H   H149      1.0  0.15274  0.04673  0.13381  1.0000
  H   H150      1.0  0.19360  0.15160  0.08711  1.0000
  H   H151      1.0  0.01869  0.33955  0.16820  1.0000
  H   H152      1.0  0.06346  0.03015  0.09941  1.0000
  H   H153      1.0  0.09327  0.38343  0.16965  1.0000
  S   S29       1.0  0.01368  0.18842  0.09292  1.0000
  C   C89       1.0  0.10538  0.13729  0.19981  1.0000
  C   C90       1.0  0.10508  0.11586  0.16484  1.0000
  C   C91       1.0  0.21019  0.17880  0.10631  1.0000
  H   H154      1.0  0.21226  0.99162  0.02288  1.0000
  C   C92       1.0  0.03547  0.29136  0.12225  1.0000
  H   H155      1.0  0.23181  0.34692  0.00317  1.0000
  S   S30       1.0  0.03000  0.21335  0.03278  1.0000
  H   H156      1.0  0.23801  0.17778  0.07157  1.0000
  H   H157      1.0  0.25008  0.20513  0.08463  1.0000
  C   C93       1.0  0.24769  0.24249  0.25376  1.0000
  H   H158      1.0  0.11249  0.13416  0.15843  1.0000
  H   H159      1.0  0.16665  0.09484  0.17287  1.0000
  H   H160      1.0  0.23421  0.20967  0.30064  1.0000
  C   C94       1.0  0.08025  0.03901  0.14577  1.0000
  C   C95       1.0  0.23423  0.35026  0.32467  1.0000
  C   C96       1.0  0.09868  0.26882  0.08611  1.0000
  H   H161      1.0  0.20720  0.19377  0.11924  1.0000
  H   H162      1.0  0.18152  0.18269  0.09586  1.0000
  H   H163      1.0  0.10534  0.00745  0.07989  1.0000
  H   H164      1.0  0.19855  0.33236  0.04778  1.0000
  H   H165      1.0  0.08870  0.14009  0.12856  1.0000
  C   C97       1.0  0.24423  0.38208  0.28208  1.0000
  H   H166      1.0  0.13572  0.07459  0.13154  1.0000
  H   H167      1.0  0.18554  0.15495  0.11448  1.0000
  H   H168      1.0  0.14223  0.13059  0.16467  1.0000
  C   C98       1.0  0.21962  0.32921  0.33130  1.0000
  H   H169      1.0  0.07390  0.06141  0.10586  1.0000
  C   C99       1.0  0.03024  0.08404  0.12419  1.0000
  H   H170      1.0  0.07510  0.10451  0.16617  1.0000
  H   H171      1.0  0.21325  0.41148  0.26731  1.0000
  C   C100      1.0  0.02737  0.07224  0.16180  1.0000
  H   H172      1.0  0.20552  0.36410  0.03515  1.0000
  H   H173      1.0  0.04034  0.27817  0.10956  1.0000
  H   H174      1.0  0.25531  0.43430  0.00891  1.0000
  H   H175      1.0  0.05062  0.31154  0.03643  1.0000
  H   H176      1.0  0.02586  0.07878  0.17815  1.0000
  H   H177      1.0  0.11018  0.16555  0.25033  1.0000
  H   H178      1.0  0.25286  0.31536  0.26625  1.0000
  H   H179      1.0  0.13411  0.09674  0.20530  1.0000
  C   C101      1.0  0.26168  0.09682  0.14548  1.0000
  H   H180      1.0  0.08012  0.02930  0.06406  1.0000
  H   H181      1.0  0.20986  0.32571  0.31814  1.0000
  H   H182      1.0  0.13183  0.01492  0.11643  1.0000
  H   H183      1.0  0.06349  0.01102  0.16510  1.0000
  H   H184      1.0  0.22491  0.39524  0.24464  1.0000
  C   C102      1.0  0.24656  0.33989  0.30561  1.0000
  H   H185      1.0  0.20879  0.17914  0.27409  1.0000
  C   C103      1.0  0.09017  0.05105  0.22424  1.0000
  C   C104      1.0  0.25125  0.18357  0.07901  1.0000
  H   H186      1.0  0.08588  0.10313  0.12806  1.0000
  H   H187      1.0  0.23822  0.09764  0.32698  1.0000
  H   H188      1.0  0.11090  0.08171  0.22771  1.0000
  C   C105      1.0  0.08110  0.12254  0.13581  1.0000
  H   H189      1.0  0.07839  0.06372  0.23102  1.0000
  C   C106      1.0  0.12552  0.03394  0.12341  1.0000
  H   H190      1.0  0.05718  0.28831  0.05792  1.0000
  H   H191      1.0  0.16729  0.00252  0.18733  1.0000
  C   C107      1.0  0.02792  0.28660  0.04907  1.0000
  S   S31       1.0  0.02336  0.01962  0.17796  1.0000
  H   H192      1.0  0.24009  0.39973  0.29257  1.0000
  Fe  Fe17      1.0  0.20461  0.98440  0.10712  1.0000
  S   S32       1.0  0.01712  0.24609  0.13829  1.0000
  H   H193      1.0  0.25008  0.23277  0.23848  1.0000
  C   C108      1.0  0.09886  0.00095  0.09531  1.0000
  C   C109      1.0  0.24439  0.19363  0.12669  1.0000
  H   H194      1.0  0.14658  0.05952  0.10794  1.0000
  H   H195      1.0  0.06837  0.04295  0.17767  1.0000
  H   H196      1.0  0.25847  0.38903  0.32072  1.0000
  C   C110      1.0  0.02069  0.30772  0.06585  1.0000
  H   H197      1.0  0.22691  0.37006  0.32096  1.0000
  H   H198      1.0  0.25662  0.32423  0.31212  1.0000
  H   H199      1.0  0.25121  0.14077  0.31145  1.0000
  C   C111      1.0  0.25288  0.14548  0.13350  1.0000
  H   H200      1.0  0.25500  0.34506  0.24892  1.0000
  C   C112      1.0  0.21494  0.17686  0.30799  1.0000
  C   C113      1.0  0.25208  0.11424  0.12834  1.0000
  H   H201      1.0  0.25275  0.37623  0.09972  1.0000
  H   H202      1.0  0.15842  0.98589  0.21109  1.0000
  H   H203      1.0  0.25593  0.24844  0.12734  1.0000
  H   H204      1.0  0.25531  0.10116  0.16140  1.0000
  C   C114      1.0  0.26012  0.36049  0.03207  1.0000
  C   C115      1.0  0.15819  0.98587  0.19344  1.0000
  H   H205      1.0  0.25479  0.14217  0.08998  1.0000
  C   C116      1.0  0.25602  0.16293  0.09710  1.0000
  N   N7        1.0  0.24808  0.18269  0.32315  1.0000
  H   H206      1.0  0.03151  0.44176  0.33023  1.0000
  C   C117      1.0  0.25176  0.15210  0.32677  1.0000
  H   H207      1.0  0.26002  0.07459  0.14206  1.0000
  C   C118      1.0  0.26204  0.23480  0.13980  1.0000
  H   H208      1.0  0.26156  0.33993  0.03871  1.0000
  H   H209      1.0  0.22649  0.30932  0.33581  1.0000
  Fe  Fe18      1.0  0.04545  0.44457  0.56546  1.0000
  Fe  Fe19      1.0  0.07919  0.44585  0.59564  1.0000
  S   S33       1.0  0.06329  0.42624  0.62256  1.0000
  S   S34       1.0  0.10887  0.46111  0.59738  1.0000
  Fe  Fe20      1.0  0.05237  0.39727  0.59830  1.0000
  C   C119      1.0  0.04822  0.32606  0.62028  1.0000
  Fe  Fe21      1.0  0.03989  0.45514  0.61270  1.0000
  H   H210      1.0  0.03817  0.40371  0.37336  1.0000
  S   S35       1.0  0.06983  0.41547  0.57161  1.0000
  H   H211      1.0  0.02798  0.39385  0.45456  1.0000
  S   S36       1.0  0.05422  0.19330  0.64996  1.0000
  H   H212      1.0  0.24232  0.14398  0.35961  1.0000
  H   H213      1.0  0.25838  0.22799  0.46648  1.0000
  H   H214      1.0  0.05028  0.25634  0.62996  1.0000
  H   H215      1.0  0.16915  0.00711  0.65149  1.0000
  H   H216      1.0  0.01804  0.19363  0.61203  1.0000
  H   H217      1.0  0.06372  0.39809  0.47844  1.0000
  S   S37       1.0  0.23321  0.01367  0.64414  1.0000
  C   C120      1.0  0.03495  0.28567  0.64946  1.0000
  H   H218      1.0  0.08981  0.01195  0.63205  1.0000
  Fe  Fe22      1.0  0.18243  0.19621  0.59662  1.0000
  S   S38       1.0  0.19392  0.20901  0.62772  1.0000
  S   S39       1.0  0.15101  0.19808  0.59247  1.0000
  Fe  Fe23      1.0  0.22164  0.18590  0.57640  1.0000
  S   S40       1.0  0.23560  0.19814  0.60673  1.0000
  S   S41       1.0  0.24017  0.17909  0.54650  1.0000
  Fe  Fe24      1.0  0.21347  0.17227  0.62285  1.0000
  S   S42       1.0  0.21502  0.14243  0.65085  1.0000
  Fe  Fe25      1.0  0.21455  0.23376  0.60872  1.0000
  S   S43       1.0  0.21920  0.28061  0.61044  1.0000
  S   S44       1.0  0.20074  0.15814  0.59257  1.0000
  S   S45       1.0  0.20185  0.22276  0.57748  1.0000
  H   H219      1.0  0.18366  0.03665  0.57715  1.0000
  H   H220      1.0  0.01939  0.08248  0.60770  1.0000
  H   H221      1.0  0.18287  0.05032  0.63535  1.0000
  H   H222      1.0  0.04292  0.38194  0.48916  1.0000
  H   H223      1.0  0.04064  0.43606  0.40342  1.0000
  H   H224      1.0  0.22184  0.33921  0.60606  1.0000
  H   H225      1.0  0.16210  0.25954  0.66098  1.0000
  H   H226      1.0  0.13405  0.98258  0.55962  1.0000
  H   H227      1.0  0.23406  0.25639  0.42444  1.0000
  H   H228      1.0  0.11874  0.30967  0.61191  1.0000
  S   S46       1.0  0.05629  0.35015  0.60092  1.0000
  H   H229      1.0  0.04940  0.09409  0.66514  1.0000
  C   C121      1.0  0.24507  0.14868  0.53148  1.0000
  H   H230      1.0  0.06959  0.17066  0.59926  1.0000
  S   S47       1.0  0.04459  0.99867  0.64224  1.0000
  C   C122      1.0  0.23732  0.10284  0.51940  1.0000
  C   C123      1.0  0.23381  0.12554  0.53295  1.0000
  H   H231      1.0  0.22848  0.08509  0.52059  1.0000
  H   H232      1.0  0.22227  0.12528  0.54431  1.0000
  C   C124      1.0  0.22753  0.04940  0.64557  1.0000
  H   H233      1.0  0.02427  0.29377  0.55258  1.0000
  C   C125      1.0  0.12633  0.27572  0.64852  1.0000
  C   C126      1.0  0.21898  0.10662  0.64730  1.0000
  C   C127      1.0  0.23164  0.09629  0.63192  1.0000
  C   C128      1.0  0.23601  0.06781  0.63119  1.0000
  H   H234      1.0  0.17186  0.36777  0.58433  1.0000
  H   H235      1.0  0.10687  0.39847  0.60380  1.0000
  H   H236      1.0  0.23851  0.11034  0.62101  1.0000
  S   S48       1.0  0.25545  0.07418  0.48709  1.0000
  C   C129      1.0  0.03203  0.04568  0.62127  1.0000
  C   C130      1.0  0.22184  0.35670  0.63756  1.0000
  C   C131      1.0  0.22096  0.33483  0.62293  1.0000
  C   C132      1.0  0.21947  0.30725  0.62987  1.0000
  C   C133      1.0  0.21869  0.30188  0.65176  1.0000
  S   S49       1.0  0.19945  0.44866  0.65693  1.0000
  H   H237      1.0  0.09548  0.25654  0.61293  1.0000
  H   H238      1.0  0.16629  0.41641  0.58601  1.0000
  H   H239      1.0  0.23394  0.09591  0.35533  1.0000
  H   H240      1.0  0.07509  0.13963  0.58458  1.0000
  H   H241      1.0  0.12845  0.27528  0.66600  1.0000
  C   C134      1.0  0.01964  0.47396  0.52036  1.0000
  C   C135      1.0  0.14608  0.18377  0.63467  1.0000
  C   C136      1.0  0.13769  0.19344  0.61609  1.0000
  C   C137      1.0  0.11841  0.19940  0.61632  1.0000
  C   C138      1.0  0.10769  0.19648  0.63518  1.0000
  H   H242      1.0  0.16081  0.17835  0.63457  1.0000
  H   H243      1.0  0.11178  0.20644  0.60190  1.0000
  H   H244      1.0  0.09292  0.20153  0.63528  1.0000
  C   C139      1.0  0.12038  0.45911  0.62187  1.0000
  H   H245      1.0  0.16100  0.47886  0.64438  1.0000
  H   H246      1.0  0.18971  0.45653  0.58008  1.0000
  H   H247      1.0  0.04699  0.41348  0.44523  1.0000
  C   C140      1.0  0.02775  0.07417  0.62050  1.0000
  C   C141      1.0  0.11249  0.44551  0.63941  1.0000
  H   H248      1.0  0.24788  0.11891  0.44588  1.0000
  H   H249      1.0  0.03297  0.35540  0.63981  1.0000
  H   H250      1.0  0.09910  0.43603  0.63816  1.0000
  H   H251      1.0  0.04619  0.44313  0.47673  1.0000
  C   C142      1.0  0.17186  0.39011  0.63640  1.0000
  H   H252      1.0  0.11606  0.05803  0.64048  1.0000
  C   C143      1.0  0.10758  0.29704  0.61940  1.0000
  C   C144      1.0  0.11619  0.18711  0.65381  1.0000
  H   H253      1.0  0.21564  0.22887  0.36755  1.0000
  C   C145      1.0  0.05313  0.29796  0.61779  1.0000
  C   C146      1.0  0.04659  0.27788  0.63229  1.0000
  H   H254      1.0  0.06179  0.29162  0.60432  1.0000
  H   H255      1.0  0.09055  0.34555  0.63546  1.0000
  H   H256      1.0  0.22343  0.37763  0.63190  1.0000
  H   H257      1.0  0.14470  0.28478  0.62075  1.0000
  H   H258      1.0  0.05699  0.13973  0.60512  1.0000
  C   C147      1.0  0.22154  0.35125  0.65944  1.0000
  H   H259      1.0  0.23951  0.21040  0.44209  1.0000
  H   H260      1.0  0.17627  0.33159  0.62442  1.0000
  C   C148      1.0  0.19210  0.42147  0.60191  1.0000
  C   C149      1.0  0.16950  0.04245  0.62932  1.0000
  H   H261      1.0  0.20773  0.05078  0.60595  1.0000
  H   H262      1.0  0.03029  0.47234  0.45516  1.0000
  H   H263      1.0  0.09215  0.05917  0.64854  1.0000
  H   H264      1.0  0.14390  0.03293  0.60144  1.0000
  H   H265      1.0  0.25052  0.19174  0.35643  1.0000
  C   C150      1.0  0.17081  0.41579  0.60280  1.0000
  C   C151      1.0  0.11369  0.32313  0.65156  1.0000
  C   C152      1.0  0.17682  0.31490  0.59294  1.0000
  C   C153      1.0  0.17985  0.04704  0.59230  1.0000
  H   H266      1.0  0.09732  0.13115  0.65691  1.0000
  H   H267      1.0  0.17498  0.29377  0.59946  1.0000
  H   H268      1.0  0.01248  0.25263  0.61700  1.0000
  H   H269      1.0  0.16908  0.31681  0.57786  1.0000
  H   H270      1.0  0.25048  0.23885  0.33950  1.0000
  H   H271      1.0  0.18664  0.38263  0.63733  1.0000
  H   H272      1.0  0.24603  0.06004  0.61945  1.0000
  C   C154      1.0  0.02913  0.46195  0.43956  1.0000
  C   C155      1.0  0.12192  0.44424  0.65876  1.0000
  H   H273      1.0  0.13803  0.40599  0.62247  1.0000
  H   H274      1.0  0.21101  0.45486  0.59495  1.0000
  C   C156      1.0  0.07087  0.14784  0.60045  1.0000
  H   H275      1.0  0.02140  0.32010  0.66542  1.0000
  C   C157      1.0  0.02592  0.40820  0.38399  1.0000
  H   H276      1.0  0.17418  0.26809  0.63647  1.0000
  H   H277      1.0  0.14126  0.37241  0.58080  1.0000
  C   C158      1.0  0.13493  0.38842  0.59135  1.0000
  H   H278      1.0  0.22626  0.10835  0.43464  1.0000
  N   N8        1.0  0.17300  0.02672  0.60888  1.0000
  C   C159      1.0  0.19687  0.06418  0.59864  1.0000
  H   H279      1.0  0.14903  0.00077  0.61410  1.0000
  H   H280      1.0  0.05406  0.40840  0.50390  1.0000
  C   C160      1.0  0.19571  0.45148  0.59582  1.0000
  H   H281      1.0  0.08013  0.29565  0.64820  1.0000
  H   H282      1.0  0.19919  0.40814  0.58977  1.0000
  H   H283      1.0  0.21764  0.28084  0.65739  1.0000
  H   H284      1.0  0.09429  0.30841  0.61585  1.0000
  N   N9        1.0  0.10203  0.09754  0.63464  1.0000
  C   C161      1.0  0.08714  0.10816  0.61975  1.0000
  C   C162      1.0  0.10206  0.06627  0.63580  1.0000
  H   H285      1.0  0.22928  0.25282  0.46363  1.0000
  C   C163      1.0  0.12115  0.10782  0.62850  1.0000
  C   C164      1.0  0.12815  0.10150  0.60560  1.0000
  C   C165      1.0  0.08543  0.13988  0.61698  1.0000
  S   S50       1.0  0.02671  0.12693  0.63617  1.0000
  C   C166      1.0  0.09620  0.05048  0.61570  1.0000
  H   H286      1.0  0.21122  0.06373  0.56765  1.0000
  C   C167      1.0  0.14672  0.11544  0.60075  1.0000
  H   H287      1.0  0.19195  0.31755  0.58945  1.0000
  H   H288      1.0  0.21544  0.27890  0.43405  1.0000
  H   H289      1.0  0.07320  0.10079  0.62519  1.0000
  H   H290      1.0  0.08930  0.09973  0.60353  1.0000
  H   H291      1.0  0.12511  0.33280  0.64212  1.0000
  C   C168      1.0  0.15447  0.01573  0.60215  1.0000
  H   H292      1.0  0.18999  0.36669  0.60284  1.0000
  H   H293      1.0  0.22737  0.18711  0.34882  1.0000
  H   H294      1.0  0.12179  0.13049  0.63103  1.0000
  H   H295      1.0  0.13190  0.09881  0.63921  1.0000
  H   H296      1.0  0.11809  0.10902  0.59360  1.0000
  H   H297      1.0  0.13058  0.07903  0.60372  1.0000
  H   H298      1.0  0.08096  0.14989  0.63207  1.0000
  H   H299      1.0  0.09890  0.14847  0.61144  1.0000
  H   H300      1.0  0.11166  0.36196  0.60030  1.0000
  C   C169      1.0  0.13787  0.47122  0.62377  1.0000
  H   H301      1.0  0.08111  0.05444  0.61266  1.0000
  H   H302      1.0  0.10433  0.05668  0.60137  1.0000
  C   C170      1.0  0.04212  0.03460  0.63825  1.0000
  H   H303      1.0  0.16038  0.06096  0.62642  1.0000
  H   H304      1.0  0.15428  0.33367  0.61066  1.0000
  H   H305      1.0  0.15752  0.10904  0.61234  1.0000
  H   H306      1.0  0.15184  0.10991  0.58451  1.0000
  H   H307      1.0  0.14482  0.13819  0.60131  1.0000
  H   H308      1.0  0.14655  0.38489  0.65619  1.0000
  H   H309      1.0  0.13908  0.36971  0.62190  1.0000
  H   H310      1.0  0.01912  0.08531  0.36219  1.0000
  C   C171      1.0  0.13540  0.18080  0.65347  1.0000
  C   C172      1.0  0.21458  0.05977  0.66059  1.0000
  H   H311      1.0  0.21743  0.09150  0.58475  1.0000
  C   C173      1.0  0.11402  0.38280  0.59349  1.0000
  C   C174      1.0  0.09255  0.28313  0.65299  1.0000
  H   H312      1.0  0.19249  0.08033  0.61030  1.0000
  H   H313      1.0  0.16353  0.43355  0.61070  1.0000
  N   N10       1.0  0.22613  0.19409  0.47057  1.0000
  C   C175      1.0  0.23747  0.20754  0.48742  1.0000
  C   C176      1.0  0.20635  0.19140  0.47908  1.0000
  C   C177      1.0  0.23489  0.16626  0.46553  1.0000
  C   C178      1.0  0.22569  0.21118  0.45046  1.0000
  C   C179      1.0  0.21965  0.24190  0.45317  1.0000
  H   H314      1.0  0.04203  0.40051  0.41184  1.0000
  C   C180      1.0  0.22479  0.14918  0.44868  1.0000
  C   C181      1.0  0.20349  0.16981  0.49715  1.0000
  C   C182      1.0  0.18337  0.17070  0.50577  1.0000
  C   C183      1.0  0.21978  0.25697  0.43173  1.0000
  C   C184      1.0  0.25206  0.10297  0.50422  1.0000
  C   C185      1.0  0.23243  0.11951  0.44804  1.0000
  H   H315      1.0  0.23858  0.19386  0.50155  1.0000
  H   H316      1.0  0.02498  0.28352  0.59145  1.0000
  H   H317      1.0  0.20105  0.21154  0.48544  1.0000
  H   H318      1.0  0.19664  0.18648  0.46612  1.0000
  H   H319      1.0  0.23634  0.15367  0.48026  1.0000
  H   H320      1.0  0.12328  0.25399  0.64440  1.0000
  H   H321      1.0  0.23016  0.22648  0.49355  1.0000
  H   H322      1.0  0.21588  0.20226  0.43900  1.0000
  H   H323      1.0  0.04381  0.45937  0.43359  1.0000
  H   H324      1.0  0.20530  0.24375  0.46009  1.0000
  S   S51       1.0  0.03945  0.45598  0.53072  1.0000
  H   H325      1.0  0.10400  0.25457  0.57499  1.0000
  H   H326      1.0  0.22705  0.15838  0.43262  1.0000
  H   H327      1.0  0.20956  0.14831  0.45198  1.0000
  H   H328      1.0  0.20649  0.14857  0.49136  1.0000
  H   H329      1.0  0.21267  0.17374  0.51069  1.0000
  H   H330      1.0  0.17986  0.19122  0.51273  1.0000
  H   H331      1.0  0.17344  0.16625  0.49297  1.0000
  H   H332      1.0  0.18178  0.15490  0.51853  1.0000
  H   H333      1.0  0.01584  0.21005  0.63777  1.0000
  C   C186      1.0  0.03684  0.33389  0.63763  1.0000
  H   H334      1.0  0.01748  0.38929  0.38541  1.0000
  H   H335      1.0  0.12042  0.25754  0.60868  1.0000
  H   H336      1.0  0.20993  0.24744  0.42068  1.0000
  C   C187      1.0  0.16070  0.02606  0.64813  1.0000
  C   C188      1.0  0.13948  0.45609  0.66062  1.0000
  H   H337      1.0  0.18948  0.46567  0.60797  1.0000
  H   H338      1.0  0.22869  0.10859  0.46306  1.0000
  H   H339      1.0  0.02681  0.03218  0.60925  1.0000
  H   H340      1.0  0.08280  0.47656  0.66647  1.0000
  H   H341      1.0  0.11369  0.01395  0.62208  1.0000
  C   C189      1.0  0.02208  0.31043  0.56446  1.0000
  H   H342      1.0  0.19521  0.09286  0.57178  1.0000
  H   H343      1.0  0.09096  0.28605  0.58063  1.0000
  C   C190      1.0  0.20564  0.07890  0.57946  1.0000
  C   C191      1.0  0.04868  0.05233  0.65380  1.0000
  C   C192      1.0  0.10435  0.27463  0.58337  1.0000
  C   C193      1.0  0.13413  0.99642  0.57362  1.0000
  H   H344      1.0  0.11609  0.28661  0.57652  1.0000
  H   H345      1.0  0.13626  0.40892  0.58356  1.0000
  C   C194      1.0  0.14415  0.38820  0.61344  1.0000
  N   N11       1.0  0.16522  0.38927  0.61366  1.0000
  C   C195      1.0  0.16955  0.33630  0.60901  1.0000
  H   H346      1.0  0.19886  0.41729  0.61731  1.0000
  Fe  Fe26      1.0  0.03747  0.15668  0.66042  1.0000
  C   C196      1.0  0.09674  0.34381  0.65145  1.0000
  C   C197      1.0  0.10711  0.26947  0.60710  1.0000
  C   C198      1.0  0.15419  0.99998  0.58085  1.0000
  H   H347      1.0  0.14617  0.02021  0.64474  1.0000
  S   S52       1.0  0.02500  0.26097  0.66712  1.0000
  H   H348      1.0  0.16841  0.06200  0.58818  1.0000
  S   S53       1.0  0.02712  0.42451  0.59053  1.0000
  H   H349      1.0  0.09493  0.00858  0.60405  1.0000
  C   C199      1.0  0.16054  0.26178  0.64352  1.0000
  C   C200      1.0  0.03378  0.09176  0.63646  1.0000
  H   H350      1.0  0.21143  0.33705  0.34528  1.0000
  C   C201      1.0  0.17453  0.36573  0.60165  1.0000
  H   H351      1.0  0.10763  0.38388  0.57757  1.0000
  H   H352      1.0  0.24316  0.35374  0.33860  1.0000
  C   C202      1.0  0.09888  0.01938  0.61874  1.0000
  H   H353      1.0  0.11245  0.38131  0.64613  1.0000
  H   H354      1.0  0.17174  0.41177  0.64219  1.0000
  C   C203      1.0  0.14750  0.46951  0.64304  1.0000
  C   C204      1.0  0.05050  0.40160  0.48768  1.0000
  H   H355      1.0  0.20952  0.00886  0.58922  1.0000
  S   S54       1.0  0.05657  0.47649  0.58731  1.0000
  H   H356      1.0  0.19696  0.00940  0.62539  1.0000
  C   C205      1.0  0.03253  0.41708  0.40580  1.0000
  H   H357      1.0  0.16168  0.01066  0.56776  1.0000
  C   C206      1.0  0.03828  0.42374  0.47701  1.0000
  H   H358      1.0  0.24943  0.16843  0.45931  1.0000
  H   H359      1.0  0.09009  0.26209  0.64688  1.0000
  H   H360      1.0  0.15804  0.35278  0.64896  1.0000
  H   H361      1.0  0.23915  0.23376  0.37677  1.0000
  C   C207      1.0  0.18691  0.00343  0.61304  1.0000
  C   C208      1.0  0.22927  0.23843  0.36375  1.0000
  H   H362      1.0  0.05642  0.04389  0.66704  1.0000
  C   C209      1.0  0.03341  0.41518  0.45409  1.0000
  C   C210      1.0  0.24071  0.19614  0.34334  1.0000
  C   C211      1.0  0.24238  0.10592  0.34256  1.0000
  N   N12       1.0  0.02011  0.43434  0.44256  1.0000
  H   H363      1.0  0.01331  0.31627  0.59679  1.0000
  C   C212      1.0  0.09712  0.10829  0.65659  1.0000
  C   C213      1.0  0.14542  0.28336  0.63830  1.0000
  C   C214      1.0  0.01454  0.29879  0.58552  1.0000
  C   C215      1.0  0.16036  0.37435  0.65358  1.0000
  H   H364      1.0  0.12772  0.01664  0.56907  1.0000
  C   C216      1.0  0.10244  0.37267  0.65794  1.0000
  C   C217      1.0  0.23727  0.22784  0.34253  1.0000
  H   H365      1.0  0.03574  0.32015  0.56706  1.0000
  C   C218      1.0  0.03023  0.31379  0.65209  1.0000
  H   H366      1.0  0.22704  0.26114  0.36284  1.0000
  H   H367      1.0  0.15701  0.24153  0.63674  1.0000
  C   C219      1.0  0.04470  0.08081  0.65277  1.0000
  N   N13       1.0  0.11008  0.29471  0.64314  1.0000
  H   H368      1.0  0.15001  0.30338  0.64450  1.0000
  H   H369      1.0  0.02560  0.42693  0.48721  1.0000
  C   C220      1.0  0.25782  0.21488  0.48098  1.0000
  C   C221      1.0  0.21033  0.08817  0.66146  1.0000
  Fe  Fe27      1.0  0.22008  0.98280  0.66693  1.0000
  H   H370      1.0  0.22402  0.14141  0.34067  1.0000
  C   C222      1.0  0.01572  0.42171  0.42145  1.0000
  C   C223      1.0  0.01994  0.98248  0.50209  1.0000
  H   H371      1.0  0.08988  0.38659  0.65861  1.0000
  H   H372      1.0  0.08256  0.10269  0.66110  1.0000
  H   H373      1.0  0.08567  0.33721  0.66288  1.0000
  C   C224      1.0  0.25998  0.14863  0.51649  1.0000
  H   H374      1.0  0.12547  0.98711  0.58647  1.0000
  H   H375      1.0  0.01873  0.47511  0.40810  1.0000
  H   H376      1.0  0.01733  0.42492  0.37661  1.0000
  C   C225      1.0  0.23906  0.13715  0.34329  1.0000
  H   H377      1.0  0.25734  0.10058  0.34521  1.0000
  H   H378      1.0  0.07383  0.47899  0.63995  1.0000
  H   H379      1.0  0.17960  0.98536  0.62001  1.0000
  H   H380      1.0  0.15085  0.06224  0.66593  1.0000
  C   C226      1.0  0.19914  0.99316  0.59387  1.0000
  H   H381      1.0  0.19077  0.98893  0.57976  1.0000
  C   C227      1.0  0.21994  0.32371  0.66640  1.0000
  H   H382      1.0  0.11904  0.32198  0.66805  1.0000
  H   H383      1.0  0.25938  0.25053  0.50178  1.0000
  H   H384      1.0  0.14207  0.17345  0.66780  1.0000
  C   C228      1.0  0.15963  0.04334  0.66836  1.0000
  H   H385      1.0  0.24421  0.41414  0.71428  1.0000
  Fe  Fe28      1.0  0.03807  0.17067  0.70762  1.0000
  H   H386      1.0  0.04294  0.11209  0.84625  1.0000
  C   C229      1.0  0.01517  0.12676  0.83706  1.0000
  H   H387      1.0  0.04603  0.21140  0.79842  1.0000
  S   S55       1.0  0.23634  0.45996  0.68588  1.0000
  H   H388      1.0  0.02711  0.44959  0.82188  1.0000
  H   H389      1.0  0.24908  0.43977  0.77962  1.0000
  Fe  Fe29      1.0  0.21643  0.47133  0.71288  1.0000
  H   H390      1.0  0.06668  0.25695  0.67764  1.0000
  H   H391      1.0  0.15333  0.03102  0.68151  1.0000
  C   C230      1.0  0.04473  0.07632  0.72553  1.0000
  S   S56       1.0  0.15076  0.45421  0.68523  1.0000
  H   H392      1.0  0.01563  0.02925  0.67284  1.0000
  S   S57       1.0  0.19905  0.43402  0.70755  1.0000
  H   H393      1.0  0.22329  0.05688  0.92257  1.0000
  H   H394      1.0  0.18357  0.36199  0.67371  1.0000
  C   C231      1.0  0.25385  0.39776  0.72046  1.0000
  H   H395      1.0  0.24795  0.37834  0.71473  1.0000
  H   H396      1.0  0.22441  0.27277  0.98972  1.0000
  H   H397      1.0  0.02491  0.10734  0.71642  1.0000
  C   C232      1.0  0.25567  0.09901  0.76687  1.0000
  H   H398      1.0  0.24115  0.98476  0.92915  1.0000
  H   H399      1.0  0.20044  0.09595  0.67331  1.0000
  H   H400      1.0  0.22498  0.99751  0.79146  1.0000
  H   H401      1.0  0.24017  0.06212  0.76135  1.0000
  H   H402      1.0  0.05386  0.07888  0.71118  1.0000
  H   H403      1.0  0.23343  0.38555  0.97670  1.0000
  H   H404      1.0  0.25425  0.24901  0.99836  1.0000
  C   C233      1.0  0.02469  0.46642  0.83358  1.0000
  C   C234      1.0  0.20122  0.38221  0.75556  1.0000
  S   S58       1.0  0.03328  0.15460  0.74161  1.0000
  H   H405      1.0  0.23427  0.02815  0.90888  1.0000
  H   H406      1.0  0.01709  0.40971  0.83328  1.0000
  H   H407      1.0  0.10138  0.26256  0.68243  1.0000
  C   C235      1.0  0.25186  0.01671  0.79243  1.0000
  H   H408      1.0  0.19743  0.09264  0.74422  1.0000
  H   H409      1.0  0.01922  0.04628  0.70638  1.0000
  H   H410      1.0  0.20802  0.04604  0.67178  1.0000
  S   S59       1.0  0.05664  0.14402  0.68656  1.0000
  C   C236      1.0  0.02461  0.08521  0.72078  1.0000
  H   H411      1.0  0.22340  0.11736  0.69625  1.0000
  H   H412      1.0  0.21874  0.02867  0.95492  1.0000
  H   H413      1.0  0.01942  0.20005  0.93578  1.0000
  C   C237      1.0  0.25356  0.00713  0.74842  1.0000
  H   H414      1.0  0.20676  0.98846  0.97149  1.0000
  H   H415      1.0  0.20435  0.06080  0.75699  1.0000
  H   H416      1.0  0.17332  0.05765  0.74077  1.0000
  H   H417      1.0  0.25878  0.37013  0.77058  1.0000
  S   S60       1.0  0.22442  0.37764  0.67868  1.0000
  H   H418      1.0  0.22617  0.35733  0.75566  1.0000
  H   H419      1.0  0.18162  0.26860  0.95760  1.0000
  C   C238      1.0  0.25442  0.10024  0.79115  1.0000
  H   H420      1.0  0.22467  0.00291  0.98663  1.0000
  C   C239      1.0  0.01370  0.20904  0.87142  1.0000
  C   C240      1.0  0.23689  0.30955  0.97476  1.0000
  H   H421      1.0  0.02966  0.12070  0.77891  1.0000
  H   H422      1.0  0.25338  0.25684  0.97035  1.0000
  H   H423      1.0  0.22287  0.12784  0.74452  1.0000
  H   H424      1.0  0.11562  0.43395  0.67234  1.0000
  H   H425      1.0  0.20980  0.16715  0.72286  1.0000
  H   H426      1.0  0.17174  0.29981  0.94589  1.0000
  H   H427      1.0  0.22063  0.37284  0.73015  1.0000
  S   S61       1.0  0.10339  0.18283  0.67777  1.0000
  S   S62       1.0  0.05510  0.20847  0.70124  1.0000
  H   H428      1.0  0.24621  0.38005  0.92990  1.0000
  H   H429      1.0  0.25247  0.07935  0.79807  1.0000
  H   H430      1.0  0.22915  0.16628  0.70373  1.0000
  H   H431      1.0  0.25011  0.48062  0.96071  1.0000
  H   H432      1.0  0.24963  0.32111  0.97800  1.0000
  C   C241      1.0  0.23857  0.08449  0.75758  1.0000
  C   C242      1.0  0.03048  0.98265  0.73116  1.0000
  H   H433      1.0  0.20979  0.02703  0.91677  1.0000
  S   S63       1.0  0.22358  0.47790  0.74787  1.0000
  H   H434      1.0  0.02984  0.20153  0.83306  1.0000
  N   N14       1.0  0.25399  0.39852  0.74443  1.0000
  H   H435      1.0  0.20345  0.11786  0.71381  1.0000
  H   H436      1.0  0.24303  0.02985  0.94683  1.0000
  H   H437      1.0  0.20564  0.16174  0.69509  1.0000
  H   H438      1.0  0.17294  0.39521  0.68017  1.0000
  H   H439      1.0  0.25735  0.44283  0.74229  1.0000
  H   H440      1.0  0.25681  0.12042  0.76075  1.0000
  H   H441      1.0  0.25105  0.02041  0.80937  1.0000
  S   S64       1.0  0.01783  0.18142  0.68177  1.0000
  H   H442      1.0  0.04542  0.05450  0.73097  1.0000
  H   H443      1.0  0.02147  0.22488  0.86226  1.0000
  C   C243      1.0  0.21767  0.12604  0.71123  1.0000
  H   H444      1.0  0.22720  0.41985  0.74661  1.0000
  H   H445      1.0  0.24980  0.34093  0.73690  1.0000
  Fe  Fe30      1.0  0.21748  0.42414  0.67923  1.0000
  Fe  Fe31      1.0  0.03642  0.21726  0.67346  1.0000
  H   H446      1.0  0.25151  0.36279  0.96648  1.0000
  C   C244      1.0  0.01488  0.19955  0.95275  1.0000
  H   H447      1.0  0.23358  0.40223  0.77034  1.0000
  H   H448      1.0  0.02379  0.19281  0.87668  1.0000
  C   C245      1.0  0.25403  0.26601  0.98645  1.0000
  H   H449      1.0  0.18330  0.06501  0.71484  1.0000
  C   C246      1.0  0.23712  0.28523  0.99074  1.0000
  H   H450      1.0  0.09932  0.12815  0.69801  1.0000
  H   H451      1.0  0.03972  0.19242  0.77535  1.0000
  H   H452      1.0  0.19014  0.32843  0.97101  1.0000
  H   H453      1.0  0.11169  0.09889  0.70911  1.0000
  H   H454      1.0  0.26212  0.40531  0.67708  1.0000
  C   C247      1.0  0.21780  0.34277  0.99670  1.0000
  H   H455      1.0  0.24258  0.11395  0.79640  1.0000
  C   C248      1.0  0.07251  0.27482  0.68594  1.0000
  H   H456      1.0  0.01938  0.12894  0.82017  1.0000
  C   C249      1.0  0.01687  0.19586  0.82485  1.0000
  H   H457      1.0  0.20083  0.38469  0.77311  1.0000
  H   H458      1.0  0.02694  0.19255  0.96243  1.0000
  H   H459      1.0  0.18386  0.27467  0.92939  1.0000
  H   H460      1.0  0.07278  0.27021  0.70325  1.0000
  H   H461      1.0  0.02410  0.10168  0.86410  1.0000
  C   C250      1.0  0.22378  0.03403  0.92144  1.0000
  C   C251      1.0  0.23784  0.99887  0.76018  1.0000
  H   H462      1.0  0.23932  0.30112  0.95853  1.0000
  H   H463      1.0  0.05600  0.47325  0.80726  1.0000
  H   H464      1.0  0.19002  0.03370  0.72898  1.0000
  H   H465      1.0  0.01613  0.08256  0.73558  1.0000
  H   H466      1.0  0.19535  0.40124  0.74808  1.0000
  C   C252      1.0  0.21548  0.15723  0.70816  1.0000
  Fe  Fe32      1.0  0.18197  0.46006  0.68543  1.0000
  H   H467      1.0  0.25270  0.10441  0.69251  1.0000
  H   H468      1.0  0.21351  0.28335  0.94695  1.0000
  N   N15       1.0  0.21994  0.32865  0.97535  1.0000
  Fe  Fe33      1.0  0.07185  0.18262  0.67799  1.0000
  C   C253      1.0  0.01678  0.06830  0.70234  1.0000
  C   C254      1.0  0.22283  0.35058  0.95841  1.0000
  C   C255      1.0  0.23710  0.00375  0.78221  1.0000
  C   C256      1.0  0.18368  0.28474  0.94520  1.0000
  C   C257      1.0  0.20215  0.29925  0.94830  1.0000
  C   C258      1.0  0.23776  0.37249  0.96297  1.0000
  C   C259      1.0  0.10185  0.10556  0.69655  1.0000
  H   H469      1.0  0.19225  0.36474  0.75143  1.0000
  C   C260      1.0  0.22924  0.02146  0.94286  1.0000
  H   H470      1.0  0.06322  0.29317  0.68336  1.0000
  C   C261      1.0  0.24063  0.39174  0.94388  1.0000
  C   C262      1.0  0.22123  0.37640  0.74751  1.0000
  C   C263      1.0  0.01584  0.12325  0.77240  1.0000
  C   C264      1.0  0.01306  0.24336  0.00096  1.0000
  H   H471      1.0  0.08845  0.09486  0.69922  1.0000
  H   H472      1.0  0.20945  0.36214  0.95552  1.0000
  H   H473      1.0  0.22708  0.34096  0.94297  1.0000
  H   H474      1.0  0.09706  0.29904  0.68551  1.0000
  H   H475      1.0  0.21076  0.36338  0.99485  1.0000
  H   H476      1.0  0.24133  0.07161  0.69109  1.0000
  H   H477      1.0  0.02668  0.24256  0.99317  1.0000
  H   H478      1.0  0.20372  0.31431  0.93507  1.0000
  H   H479      1.0  0.12387  0.10905  0.67315  1.0000
  H   H480      1.0  0.03444  0.46150  0.84671  1.0000
  S   S65       1.0  0.19910  0.99729  0.69148  1.0000
  H   H481      1.0  0.24324  0.13116  0.72842  1.0000
  H   H482      1.0  0.21650  0.07274  0.71079  1.0000
  H   H483      1.0  0.25428  0.00378  0.73144  1.0000
  C   C265      1.0  0.20204  0.07097  0.74133  1.0000
  C   C266      1.0  0.22032  0.06949  0.72763  1.0000
  H   H484      1.0  0.03048  0.16003  0.85078  1.0000
  C   C267      1.0  0.18624  0.05593  0.73073  1.0000
  C   C268      1.0  0.23032  0.11892  0.73034  1.0000
  C   C269      1.0  0.20234  0.31370  0.97023  1.0000
  H   H485      1.0  0.21983  0.31916  0.68326  1.0000
  C   C270      1.0  0.25321  0.08253  0.69777  1.0000
  C   C271      1.0  0.23404  0.40059  0.75272  1.0000
  N   N16       1.0  0.23542  0.08882  0.73406  1.0000
  H   H486      1.0  0.22728  0.40236  0.93965  1.0000
  H   H487      1.0  0.22560  0.04766  0.72839  1.0000
  H   H488      1.0  0.19927  0.29753  0.98226  1.0000
  C   C272      1.0  0.25337  0.08081  0.72237  1.0000
  H   H489      1.0  0.16115  0.36394  0.68719  1.0000
  H   H490      1.0  0.05007  0.08948  0.73835  1.0000
  H   H491      1.0  0.22609  0.09175  0.76701  1.0000
  H   H492      1.0  0.02590  0.07209  0.68824  1.0000
  C   C273      1.0  0.09225  0.28027  0.67757  1.0000
  H   H493      1.0  0.25088  0.40764  0.94787  1.0000
  C   C274      1.0  0.23035  0.98948  0.94169  1.0000
  H   H494      1.0  0.25423  0.00461  0.97325  1.0000
  H   H495      1.0  0.25770  0.05940  0.72690  1.0000
  H   H496      1.0  0.01687  0.23308  0.90006  1.0000
  H   H497      1.0  0.03337  0.16482  0.80707  1.0000
  C   C275      1.0  0.02354  0.18226  0.80380  1.0000
  H   H498      1.0  0.02456  0.22001  0.78476  1.0000
  C   C276      1.0  0.03408  0.20288  0.78982  1.0000
  C   C277      1.0  0.17016  0.37389  0.67493  1.0000
  H   H499      1.0  0.02732  0.08545  0.83859  1.0000
  C   C278      1.0  0.11028  0.09853  0.67467  1.0000
  H   H500      1.0  0.17381  0.04931  0.67315  1.0000
  H   H501      1.0  0.11304  0.07596  0.67441  1.0000
  H   H502      1.0  0.10886  0.37223  0.67388  1.0000
  C   C279      1.0  0.02824  0.10528  0.84719  1.0000
  C   C280      1.0  0.01556  0.15471  0.84887  1.0000
  C   C281      1.0  0.22044  0.98345  0.97896  1.0000
  C   C282      1.0  0.01347  0.13901  0.75373  1.0000
  H   H503      1.0  0.03279  0.00515  0.72974  1.0000
  S   S66       1.0  0.21887  0.98213  0.74833  1.0000
  C   C283      1.0  0.25420  0.98259  0.96847  1.0000
  H   H504      1.0  0.21685  0.98231  0.93542  1.0000
  C   C284      1.0  0.20406  0.97575  0.01481  1.0000
  Fe  Fe34      1.0  0.05967  0.70473  0.10498  1.0000
  S   S67       1.0  0.05061  0.69921  0.13877  1.0000
  S   S68       1.0  0.09083  0.70737  0.09863  1.0000
  Fe  Fe35      1.0  0.03287  0.66497  0.12733  1.0000
  C   C285      1.0  0.14641  0.50322  0.22094  1.0000
  Fe  Fe36      1.0  0.02734  0.72889  0.13114  1.0000
  C   C286      1.0  0.23687  0.80108  0.03963  1.0000
  S   S69       1.0  0.04298  0.66926  0.09336  1.0000
  S   S70       1.0  0.03755  0.73710  0.09773  1.0000
  Fe  Fe37      1.0  0.03301  0.97448  0.17644  1.0000
  S   S71       1.0  0.05397  0.96410  0.20144  1.0000
  Fe  Fe38      1.0  0.03652  0.91606  0.15878  1.0000
  S   S72       1.0  0.05831  0.90232  0.18209  1.0000
  H   H505      1.0  0.09299  0.96841  0.05895  1.0000
  Fe  Fe39      1.0  0.03944  0.92383  0.20621  1.0000
  Fe  Fe40      1.0  0.07059  0.94370  0.17523  1.0000
  S   S73       1.0  0.10073  0.95598  0.17194  1.0000
  S   S74       1.0  0.05045  0.95588  0.14999  1.0000
  Fe  Fe41      1.0  0.17931  0.93814  0.09316  1.0000
  S   S75       1.0  0.18786  0.95297  0.12498  1.0000
  S   S76       1.0  0.14917  0.92600  0.08957  1.0000
  Fe  Fe42      1.0  0.21939  0.94050  0.07460  1.0000
  S   S77       1.0  0.23026  0.95625  0.10573  1.0000
  S   S78       1.0  0.24094  0.93483  0.04730  1.0000
  Fe  Fe43      1.0  0.21218  0.92345  0.12062  1.0000
  S   S79       1.0  0.21818  0.89502  0.14871  1.0000
  H   H506      1.0  0.10377  0.94812  0.07979  1.0000
  H   H507      1.0  0.25806  0.91305  0.09201  1.0000
  S   S80       1.0  0.20271  0.90663  0.08960  1.0000
  H   H508      1.0  0.26075  0.73810  0.08522  1.0000
  Fe  Fe44      1.0  0.17168  0.71176  0.17814  1.0000
  S   S81       1.0  0.18617  0.70536  0.14690  1.0000
  S   S82       1.0  0.14025  0.71901  0.18066  1.0000
  Fe  Fe45      1.0  0.20861  0.70810  0.20197  1.0000
  S   S83       1.0  0.22569  0.70062  0.17161  1.0000
  S   S84       1.0  0.21796  0.70784  0.23672  1.0000
  Fe  Fe46      1.0  0.20730  0.73477  0.15820  1.0000
  S   S85       1.0  0.21465  0.76610  0.13257  1.0000
  Fe  Fe47      1.0  0.20293  0.67143  0.16262  1.0000
  S   S86       1.0  0.20206  0.63377  0.14078  1.0000
  S   S87       1.0  0.19164  0.74379  0.18874  1.0000
  S   S88       1.0  0.18704  0.67647  0.19370  1.0000
  C   C287      1.0  0.02581  0.53528  0.15500  1.0000
  C   C288      1.0  0.23324  0.72885  0.25137  1.0000
  C   C289      1.0  0.24441  0.74881  0.24164  1.0000
  H   H509      1.0  0.03870  0.83456  0.02386  1.0000
  C   C290      1.0  0.22029  0.50383  0.21090  1.0000
  H   H510      1.0  0.21545  0.78630  0.26076  1.0000
  H   H511      1.0  0.13276  0.98028  0.15282  1.0000
  H   H512      1.0  0.24122  0.86500  0.25066  1.0000
  C   C291      1.0  0.02132  0.87974  0.27420  1.0000
  C   C292      1.0  0.22212  0.54261  0.14287  1.0000
  C   C293      1.0  0.20994  0.55225  0.12726  1.0000
  C   C294      1.0  0.20394  0.58016  0.12699  1.0000
  C   C295      1.0  0.20999  0.59879  0.14231  1.0000
  C   C296      1.0  0.22214  0.58914  0.15800  1.0000
  C   C297      1.0  0.22823  0.56123  0.15818  1.0000
  H   H513      1.0  0.20535  0.53828  0.11521  1.0000
  H   H514      1.0  0.19466  0.58745  0.11469  1.0000
  H   H515      1.0  0.22699  0.60323  0.16982  1.0000
  H   H516      1.0  0.23773  0.55404  0.17029  1.0000
  C   C298      1.0  0.21552  0.80168  0.13782  1.0000
  C   C299      1.0  0.21691  0.81995  0.12056  1.0000
  C   C300      1.0  0.21771  0.84846  0.12376  1.0000
  C   C301      1.0  0.21738  0.85908  0.14434  1.0000
  C   C302      1.0  0.21628  0.84075  0.16170  1.0000
  C   C303      1.0  0.21511  0.81213  0.15849  1.0000
  H   H517      1.0  0.21717  0.81196  0.10461  1.0000
  H   H518      1.0  0.21897  0.86211  0.11027  1.0000
  H   H519      1.0  0.21639  0.84864  0.17767  1.0000
  H   H520      1.0  0.21428  0.79815  0.17194  1.0000
  H   H521      1.0  0.24350  0.80819  0.02451  1.0000
  C   C304      1.0  0.24423  0.90764  0.02862  1.0000
  H   H522      1.0  0.17239  0.53194  0.12478  1.0000
  H   H523      1.0  0.06414  0.84245  0.28881  1.0000
  H   H524      1.0  0.11257  0.51681  0.14851  1.0000
  H   H525      1.0  0.08963  0.60908  0.07109  1.0000
  H   H526      1.0  0.22388  0.92097  0.24248  1.0000
  C   C305      1.0  0.13476  0.93532  0.11158  1.0000
  C   C306      1.0  0.13952  0.95721  0.12454  1.0000
  C   C307      1.0  0.12876  0.96353  0.14278  1.0000
  C   C308      1.0  0.11285  0.94850  0.14799  1.0000
  C   C309      1.0  0.10748  0.92736  0.13456  1.0000
  C   C310      1.0  0.11852  0.92065  0.11644  1.0000
  H   H527      1.0  0.15131  0.96969  0.12029  1.0000
  H   H528      1.0  0.23925  0.77901  0.08666  1.0000
  H   H529      1.0  0.09510  0.91577  0.13840  1.0000
  H   H530      1.0  0.11460  0.90391  0.10631  1.0000
  H   H531      1.0  0.20028  0.95975  0.02677  1.0000
  C   C311      1.0  0.08362  0.97957  0.09102  1.0000
  H   H532      1.0  0.24205  0.77994  0.04335  1.0000
  C   C312      1.0  0.10441  0.71016  0.12158  1.0000
  C   C313      1.0  0.09703  0.72249  0.14005  1.0000
  C   C314      1.0  0.10814  0.72497  0.15806  1.0000
  C   C315      1.0  0.12669  0.71504  0.15782  1.0000
  C   C316      1.0  0.13406  0.70258  0.13938  1.0000
  C   C317      1.0  0.12301  0.70034  0.12127  1.0000
  H   H533      1.0  0.08294  0.73093  0.14028  1.0000
  H   H534      1.0  0.10236  0.73479  0.17220  1.0000
  H   H535      1.0  0.14825  0.69463  0.13909  1.0000
  H   H536      1.0  0.12884  0.69079  0.10705  1.0000
  S   S89       1.0  0.01824  0.50086  0.15902  1.0000
  H   H537      1.0  0.18715  0.48404  0.20190  1.0000
  N   N17       1.0  0.24120  0.85702  0.28458  1.0000
  C   C318      1.0  0.15244  0.50142  0.19712  1.0000
  H   H538      1.0  0.11343  0.53968  0.17093  1.0000
  H   H539      1.0  0.14969  0.81719  0.17590  1.0000
  H   H540      1.0  0.17331  0.80290  0.17341  1.0000
  H   H541      1.0  0.04841  0.84809  0.23166  1.0000
  H   H542      1.0  0.24390  0.75187  0.22462  1.0000
  H   H543      1.0  0.19212  0.83509  0.06938  1.0000
  H   H544      1.0  0.17043  0.82504  0.05788  1.0000
  H   H545      1.0  0.03226  0.88868  0.28335  1.0000
  C   C319      1.0  0.16357  0.51403  0.12870  1.0000
  C   C320      1.0  0.17545  0.59733  0.18981  1.0000
  C   C321      1.0  0.23427  0.72510  0.27357  1.0000
  H   H546      1.0  0.14507  0.52497  0.22621  1.0000
  C   C322      1.0  0.01749  0.93291  0.33105  1.0000
  S   S90       1.0  0.19487  0.97070  0.07498  1.0000
  S   S91       1.0  0.03802  0.62824  0.15001  1.0000
  C   C323      1.0  0.21344  0.82445  0.27894  1.0000
  H   H547      1.0  0.01865  0.77890  0.20065  1.0000
  H   H548      1.0  0.09876  0.86870  0.18316  1.0000
  H   H549      1.0  0.18265  0.51070  0.22081  1.0000
  H   H550      1.0  0.24694  0.73764  0.30288  1.0000
  H   H551      1.0  0.16798  0.55258  0.21116  1.0000
  H   H552      1.0  0.03967  0.82745  0.26577  1.0000
  H   H553      1.0  0.22575  0.70970  0.28129  1.0000
  N   N18       1.0  0.04783  0.80521  0.22216  1.0000
  C   C324      1.0  0.04875  0.81464  0.19925  1.0000
  C   C325      1.0  0.01727  0.84492  0.15765  1.0000
  C   C326      1.0  0.05556  0.82799  0.23545  1.0000
  C   C327      1.0  0.05905  0.77887  0.22603  1.0000
  C   C328      1.0  0.06040  0.75770  0.20753  1.0000
  C   C329      1.0  0.06836  0.82340  0.19100  1.0000
  C   C330      1.0  0.05427  0.82393  0.25994  1.0000
  C   C331      1.0  0.16538  0.95809  0.18486  1.0000
  C   C332      1.0  0.07018  0.73090  0.21452  1.0000
  C   C333      1.0  0.06947  0.82451  0.16675  1.0000
  C   C334      1.0  0.06634  0.84454  0.27134  1.0000
  H   H554      1.0  0.03910  0.83274  0.19680  1.0000
  H   H555      1.0  0.04363  0.79861  0.18849  1.0000
  H   H556      1.0  0.01430  0.66580  0.01602  1.0000
  H   H557      1.0  0.07062  0.83083  0.23150  1.0000
  H   H558      1.0  0.07377  0.78355  0.22988  1.0000
  H   H559      1.0  0.05344  0.76804  0.24039  1.0000
  H   H560      1.0  0.06865  0.76590  0.19388  1.0000
  C   C335      1.0  0.02601  0.67990  0.01258  1.0000
  H   H561      1.0  0.07128  0.84435  0.19689  1.0000
  H   H562      1.0  0.07959  0.80921  0.19669  1.0000
  H   H563      1.0  0.05892  0.80285  0.26472  1.0000
  H   H564      1.0  0.19130  0.56262  0.17808  1.0000
  H   H565      1.0  0.22829  0.95295  0.00392  1.0000
  H   H566      1.0  0.18550  0.52294  0.16081  1.0000
  H   H567      1.0  0.08466  0.73485  0.21957  1.0000
  H   H568      1.0  0.15123  0.51480  0.11827  1.0000
  H   H569      1.0  0.06229  0.72108  0.22783  1.0000
  H   H570      1.0  0.08379  0.83005  0.16143  1.0000
  H   H571      1.0  0.06618  0.80420  0.15987  1.0000
  H   H572      1.0  0.05954  0.84044  0.16065  1.0000
  H   H573      1.0  0.18330  0.61180  0.17945  1.0000
  C   C336      1.0  0.23328  0.85134  0.32472  1.0000
  C   C337      1.0  0.21588  0.79939  0.03596  1.0000
  H   H574      1.0  0.20870  0.79055  0.05018  1.0000
  H   H575      1.0  0.20972  0.82013  0.03249  1.0000
  H   H576      1.0  0.22706  0.83081  0.32287  1.0000
  H   H577      1.0  0.15584  0.78531  0.18908  1.0000
  C   C338      1.0  0.03073  0.84563  0.03665  1.0000
  H   H578      1.0  0.01973  0.82187  0.22598  1.0000
  H   H579      1.0  0.14869  0.93659  0.20891  1.0000
  C   C339      1.0  0.17641  0.56851  0.18014  1.0000
  S   S92       1.0  0.22982  0.50749  0.14422  1.0000
  N   N19       1.0  0.10107  0.61287  0.13663  1.0000
  C   C340      1.0  0.09944  0.58687  0.14988  1.0000
  C   C341      1.0  0.09048  0.63661  0.14732  1.0000
  C   C342      1.0  0.09213  0.60754  0.11553  1.0000
  C   C343      1.0  0.12117  0.62016  0.13229  1.0000
  C   C344      1.0  0.13296  0.62663  0.15185  1.0000
  C   C345      1.0  0.10853  0.56017  0.14040  1.0000
  C   C346      1.0  0.08969  0.63283  0.10043  1.0000
  C   C347      1.0  0.08941  0.63649  0.17204  1.0000
  C   C348      1.0  0.08029  0.66302  0.18061  1.0000
  C   C349      1.0  0.15338  0.63090  0.14528  1.0000
  C   C350      1.0  0.10631  0.53580  0.15576  1.0000
  C   C351      1.0  0.08064  0.62447  0.07971  1.0000
  H   H580      1.0  0.08435  0.58265  0.15300  1.0000
  H   H581      1.0  0.10561  0.58940  0.16574  1.0000
  H   H582      1.0  0.09612  0.65673  0.14184  1.0000
  H   H583      1.0  0.07564  0.63718  0.14244  1.0000
  H   H584      1.0  0.07798  0.59875  0.11821  1.0000
  H   H585      1.0  0.10049  0.59198  0.10628  1.0000
  H   H586      1.0  0.12854  0.60382  0.12281  1.0000
  H   H587      1.0  0.12189  0.63900  0.12221  1.0000
  H   H588      1.0  0.13266  0.60979  0.16383  1.0000
  H   H589      1.0  0.12777  0.64615  0.15923  1.0000
  H   H590      1.0  0.10173  0.55439  0.12544  1.0000
  H   H591      1.0  0.12368  0.56270  0.13720  1.0000
  H   H592      1.0  0.10327  0.64201  0.09605  1.0000
  H   H593      1.0  0.08065  0.64908  0.10787  1.0000
  H   H594      1.0  0.08068  0.61924  0.17784  1.0000
  H   H595      1.0  0.10337  0.63410  0.17915  1.0000
  H   H596      1.0  0.06572  0.66531  0.17501  1.0000
  H   H597      1.0  0.07991  0.66236  0.19826  1.0000
  H   H598      1.0  0.08839  0.68114  0.17538  1.0000
  H   H599      1.0  0.15455  0.64585  0.13188  1.0000
  H   H600      1.0  0.16104  0.63936  0.15884  1.0000
  H   H601      1.0  0.16023  0.61109  0.14040  1.0000
  H   H602      1.0  0.21346  0.78585  0.02217  1.0000
  C   C352      1.0  0.02756  0.80207  0.22873  1.0000
  H   H603      1.0  0.24119  0.82007  0.26548  1.0000
  H   H604      1.0  0.06668  0.61563  0.08298  1.0000
  Fe  Fe48      1.0  0.01975  0.70136  0.08926  1.0000
  H   H605      1.0  0.02198  0.75837  0.22430  1.0000
  N   N20       1.0  0.15927  0.90563  0.18685  1.0000
  C   C353      1.0  0.14465  0.88591  0.19481  1.0000
  C   C354      1.0  0.17743  0.90112  0.19864  1.0000
  C   C355      1.0  0.15212  0.93453  0.19161  1.0000
  C   C356      1.0  0.16260  0.90354  0.16314  1.0000
  C   C357      1.0  0.16610  0.87430  0.15414  1.0000
  C   C358      1.0  0.24630  0.74093  0.28588  1.0000
  C   C359      1.0  0.18224  0.87154  0.20681  1.0000
  C   C360      1.0  0.20114  0.87056  0.21775  1.0000
  C   C361      1.0  0.16848  0.87528  0.12998  1.0000
  H   H606      1.0  0.22077  0.87672  0.26434  1.0000
  H   H607      1.0  0.18958  0.90797  0.18868  1.0000
  H   H608      1.0  0.17756  0.91424  0.21312  1.0000
  H   H609      1.0  0.21396  0.78137  0.28927  1.0000
  H   H610      1.0  0.13884  0.93908  0.18332  1.0000
  H   H611      1.0  0.15076  0.91320  0.15437  1.0000
  H   H612      1.0  0.17496  0.91570  0.15823  1.0000
  H   H613      1.0  0.15422  0.86074  0.15778  1.0000
  H   H614      1.0  0.17908  0.86510  0.16055  1.0000
  H   H615      1.0  0.22281  0.85304  0.00655  1.0000
  H   H616      1.0  0.23701  0.84231  0.05103  1.0000
  H   H617      1.0  0.17167  0.86479  0.21882  1.0000
  H   H618      1.0  0.18277  0.85637  0.19377  1.0000
  H   H619      1.0  0.21234  0.87845  0.20699  1.0000
  H   H620      1.0  0.20046  0.88325  0.23237  1.0000
  H   H621      1.0  0.20483  0.84894  0.22225  1.0000
  H   H622      1.0  0.17304  0.85474  0.12403  1.0000
  H   H623      1.0  0.15508  0.88137  0.12246  1.0000
  H   H624      1.0  0.17932  0.89016  0.12525  1.0000
  H   H625      1.0  0.03883  0.66763  0.00830  1.0000
  H   H626      1.0  0.14001  0.50848  0.18803  1.0000
  C   C362      1.0  0.23173  0.86902  0.30419  1.0000
  H   H627      1.0  0.06245  0.86600  0.26660  1.0000
  H   H628      1.0  0.01787  0.77915  0.01591  1.0000
  H   H629      1.0  0.17860  0.48890  0.16562  1.0000
  H   H630      1.0  0.23384  0.51395  0.20773  1.0000
  H   H631      1.0  0.04495  0.53525  0.18089  1.0000
  H   H632      1.0  0.19351  0.79188  0.27477  1.0000
  C   C363      1.0  0.15711  0.51500  0.15197  1.0000
  H   H633      1.0  0.23783  0.88926  0.30800  1.0000
  C   C364      1.0  0.02651  0.85249  0.13878  1.0000
  H   H634      1.0  0.21667  0.87360  0.30137  1.0000
  C   C365      1.0  0.17371  0.51080  0.16725  1.0000
  C   C366      1.0  0.24085  0.82167  0.05754  1.0000
  N   N21       1.0  0.15090  0.78417  0.11393  1.0000
  C   C367      1.0  0.15440  0.80383  0.09564  1.0000
  C   C368      1.0  0.13033  0.77796  0.11490  1.0000
  C   C369      1.0  0.15701  0.79747  0.13418  1.0000
  C   C370      1.0  0.16188  0.75749  0.11107  1.0000
  C   C371      1.0  0.15877  0.74188  0.09004  1.0000
  C   C372      1.0  0.17522  0.80900  0.08987  1.0000
  C   C373      1.0  0.15252  0.78161  0.15509  1.0000
  C   C374      1.0  0.11691  0.80271  0.12019  1.0000
  C   C375      1.0  0.09658  0.79375  0.12131  1.0000
  C   C376      1.0  0.17129  0.71595  0.08872  1.0000
  C   C377      1.0  0.17709  0.83142  0.07280  1.0000
  C   C378      1.0  0.15823  0.79791  0.17450  1.0000
  H   H635      1.0  0.14787  0.82438  0.09921  1.0000
  H   H636      1.0  0.14746  0.79680  0.08102  1.0000
  H   H637      1.0  0.12578  0.76986  0.09939  1.0000
  H   H638      1.0  0.12752  0.76107  0.12646  1.0000
  H   H639      1.0  0.15099  0.81871  0.13557  1.0000
  H   H640      1.0  0.17244  0.79992  0.13392  1.0000
  H   H641      1.0  0.17713  0.76085  0.11265  1.0000
  H   H642      1.0  0.15829  0.74280  0.12405  1.0000
  H   H643      1.0  0.16198  0.75485  0.07593  1.0000
  H   H644      1.0  0.14409  0.73522  0.08907  1.0000
  H   H645      1.0  0.18274  0.81600  0.10388  1.0000
  H   H646      1.0  0.18241  0.79003  0.08384  1.0000
  H   H647      1.0  0.16040  0.76165  0.15546  1.0000
  H   H648      1.0  0.13740  0.77755  0.15697  1.0000
  H   H649      1.0  0.12007  0.81195  0.13574  1.0000
  H   H650      1.0  0.11794  0.81890  0.10770  1.0000
  H   H651      1.0  0.09421  0.78035  0.13543  1.0000
  H   H652      1.0  0.08712  0.81216  0.12272  1.0000
  H   H653      1.0  0.09288  0.78237  0.10676  1.0000
  H   H654      1.0  0.16786  0.70147  0.10193  1.0000
  H   H655      1.0  0.16908  0.70529  0.07345  1.0000
  H   H656      1.0  0.18627  0.72133  0.08957  1.0000
  H   H657      1.0  0.17050  0.85115  0.07836  1.0000
  C   C379      1.0  0.01468  0.82786  0.04467  1.0000
  H   H658      1.0  0.20477  0.54121  0.20491  1.0000
  C   C380      1.0  0.23620  0.87488  0.26573  1.0000
  H   H659      1.0  0.16616  0.95982  0.16726  1.0000
  S   S93       1.0  0.03676  0.90822  0.24059  1.0000
  C   C381      1.0  0.20481  0.51960  0.19922  1.0000
  H   H660      1.0  0.17975  0.95453  0.19072  1.0000
  C   C382      1.0  0.03283  0.83196  0.12460  1.0000
  C   C383      1.0  0.12504  0.88939  0.18487  1.0000
  H   H661      1.0  0.03992  0.83773  0.10994  1.0000
  H   H662      1.0  0.14264  0.88808  0.21235  1.0000
  H   H663      1.0  0.03373  0.69562  0.18210  1.0000
  H   H664      1.0  0.03155  0.70402  0.20988  1.0000
  H   H665      1.0  0.18201  0.59724  0.20567  1.0000
  H   H666      1.0  0.11887  0.84565  0.18289  1.0000
  H   H667      1.0  0.20594  0.83145  0.29359  1.0000
  H   H668      1.0  0.14973  0.53500  0.15488  1.0000
  C   C384      1.0  0.03042  0.80396  0.12955  1.0000
  H   H669      1.0  0.03586  0.78838  0.11882  1.0000
  C   C385      1.0  0.23044  0.88844  0.02484  1.0000
  H   H670      1.0  0.04655  0.75249  0.20149  1.0000
  H   H671      1.0  0.07989  0.94231  0.07285  1.0000
  H   H672      1.0  0.14937  0.86422  0.19232  1.0000
  S   S94       1.0  0.02955  0.88739  0.13206  1.0000
  C   C386      1.0  0.26041  0.89123  0.09688  1.0000
  C   C387      1.0  0.01427  0.81695  0.16221  1.0000
  C   C388      1.0  0.03860  0.54745  0.16839  1.0000
  H   H673      1.0  0.12593  0.89154  0.16734  1.0000
  H   H674      1.0  0.08006  0.96821  0.10591  1.0000
  H   H675      1.0  0.25058  0.88647  0.11025  1.0000
  H   H676      1.0  0.11771  0.90791  0.19151  1.0000
  C   C389      1.0  0.11276  0.86481  0.19000  1.0000
  C   C390      1.0  0.09055  0.95835  0.07465  1.0000
  H   H677      1.0  0.25164  0.74433  0.11168  1.0000
  H   H678      1.0  0.17042  0.56979  0.16401  1.0000
  H   H679      1.0  0.04041  0.84994  0.04974  1.0000
  H   H680      1.0  0.23066  0.81848  0.07084  1.0000
  H   H681      1.0  0.24643  0.90941  0.23184  1.0000
  H   H682      1.0  0.02871  0.69156  0.02729  1.0000
  C   C391      1.0  0.04243  0.57577  0.16626  1.0000
  H   H683      1.0  0.15042  0.55290  0.19179  1.0000
  H   H684      1.0  0.24814  0.84836  0.32896  1.0000
  H   H685      1.0  0.12342  0.49139  0.24195  1.0000
  C   C392      1.0  0.03392  0.59216  0.15044  1.0000
  C   C393      1.0  0.01746  0.55166  0.13904  1.0000
  C   C394      1.0  0.16549  0.54767  0.19419  1.0000
  C   C395      1.0  0.18552  0.50684  0.20366  1.0000
  N   N22       1.0  0.16948  0.51736  0.19035  1.0000
  C   C396      1.0  0.02113  0.79631  0.14838  1.0000
  C   C397      1.0  0.25656  0.76448  0.25393  1.0000
  H   H686      1.0  0.21734  0.88960  0.03372  1.0000
  H   H687      1.0  0.25352  0.79416  0.10663  1.0000
  H   H688      1.0  0.14697  0.49820  0.15430  1.0000
  H   H689      1.0  0.24237  0.87587  0.07327  1.0000
  H   H690      1.0  0.02205  0.74626  0.04604  1.0000
  S   S95       1.0  0.01682  0.93559  0.18319  1.0000
  H   H691      1.0  0.11105  0.86204  0.20747  1.0000
  C   C398      1.0  0.01691  0.77865  0.21812  1.0000
  H   H692      1.0  0.16074  0.60496  0.19139  1.0000
  H   H693      1.0  0.08138  0.84060  0.26751  1.0000
  H   H694      1.0  0.17161  0.49459  0.12537  1.0000
  H   H695      1.0  0.07882  0.64294  0.06934  1.0000
  H   H696      1.0  0.24425  0.94140  0.24613  1.0000
  C   C399      1.0  0.20887  0.79416  0.27574  1.0000
  C   C400      1.0  0.23484  0.82812  0.28055  1.0000
  C   C401      1.0  0.02361  0.70033  0.19525  1.0000
  H   H697      1.0  0.01940  0.65801  0.20331  1.0000
  H   H698      1.0  0.24003  0.81371  0.29306  1.0000
  H   H699      1.0  0.02610  0.79769  0.24603  1.0000
  H   H700      1.0  0.09126  0.53208  0.15916  1.0000
  H   H701      1.0  0.20779  0.83614  0.26518  1.0000
  C   C402      1.0  0.23914  0.92000  0.24537  1.0000
  H   H702      1.0  0.20863  0.51912  0.18217  1.0000
  C   C403      1.0  0.24318  0.90492  0.26627  1.0000
  H   H703      1.0  0.05180  0.58510  0.17722  1.0000
  H   H704      1.0  0.07095  0.71637  0.20096  1.0000
  H   H705      1.0  0.23594  0.91663  0.27924  1.0000
  S   S96       1.0  0.01829  0.76127  0.15531  1.0000
  H   H706      1.0  0.25057  0.83675  0.09639  1.0000
  H   H707      1.0  0.21744  0.50376  0.22832  1.0000
  C   C404      1.0  0.25763  0.76063  0.27612  1.0000
  C   C405      1.0  0.25376  0.78123  0.09216  1.0000
  C   C406      1.0  0.26206  0.85591  0.28788  1.0000
  C   C407      1.0  0.02167  0.57981  0.13656  1.0000
  H   H708      1.0  0.02523  0.86543  0.03000  1.0000
  C   C408      1.0  0.26088  0.75255  0.09883  1.0000
  H   H709      1.0  0.02091  0.80809  0.05043  1.0000
  H   H710      1.0  0.11646  0.49995  0.21530  1.0000
  C   C409      1.0  0.02011  0.88593  0.25238  1.0000
  H   H711      1.0  0.24997  0.60667  0.00431  1.0000
  H   H712      1.0  0.01505  0.59204  0.12427  1.0000
  C   C410      1.0  0.26108  0.90592  0.01671  1.0000
  C   C411      1.0  0.23356  0.86778  0.00937  1.0000
  C   C412      1.0  0.25713  0.87256  0.07794  1.0000
  H   H713      1.0  0.15663  0.49210  0.23111  1.0000
  H   H714      1.0  0.02547  0.91600  0.32288  1.0000
  C   C413      1.0  0.12755  0.48971  0.22489  1.0000
  H   H715      1.0  0.01340  0.84578  0.07570  1.0000
  C   C414      1.0  0.26106  0.84179  0.08379  1.0000
  N   N23       1.0  0.26053  0.82151  0.06567  1.0000
  H   H716      1.0  0.25843  0.90567  0.26883  1.0000
  H   H717      1.0  0.01563  0.95754  0.30303  1.0000
  H   H718      1.0  0.01549  0.71942  0.19130  1.0000
  H   H719      1.0  0.22157  0.48229  0.20507  1.0000
  Fe  Fe49      1.0  0.04360  0.94584  0.57019  1.0000
  Fe  Fe50      1.0  0.08034  0.93730  0.59357  1.0000
  S   S97       1.0  0.06520  0.93328  0.62444  1.0000
  S   S98       1.0  0.11196  0.93205  0.59336  1.0000
  Fe  Fe51      1.0  0.04533  0.90552  0.60859  1.0000
  H   H720      1.0  0.16052  0.97903  0.58304  1.0000
  H   H721      1.0  0.09270  0.52514  0.66405  1.0000
  C   C415      1.0  0.01804  0.97554  0.52382  1.0000
  S   S99       1.0  0.06158  0.90771  0.57757  1.0000
  H   H722      1.0  0.04416  0.53713  0.56589  1.0000
  S   S100      1.0  0.05722  0.67524  0.64191  1.0000
  C   C416      1.0  0.02894  0.51792  0.63319  1.0000
  Fe  Fe52      1.0  0.03734  0.64101  0.64788  1.0000
  C   C417      1.0  0.03208  0.53554  0.65028  1.0000
  Fe  Fe53      1.0  0.03471  0.70429  0.65404  1.0000
  H   H723      1.0  0.09573  0.71918  0.64546  1.0000
  H   H724      1.0  0.22505  0.85276  0.35806  1.0000
  S   S101      1.0  0.22238  0.51550  0.63930  1.0000
  C   C418      1.0  0.22275  0.82202  0.66702  1.0000
  H   H725      1.0  0.06520  0.57646  0.55975  1.0000
  Fe  Fe54      1.0  0.17951  0.68510  0.60341  1.0000
  S   S102      1.0  0.19087  0.70169  0.63346  1.0000
  S   S103      1.0  0.15006  0.66871  0.60230  1.0000
  Fe  Fe55      1.0  0.21707  0.69116  0.57875  1.0000
  S   S104      1.0  0.23071  0.70821  0.60777  1.0000
  S   S105      1.0  0.23490  0.68806  0.54804  1.0000
  Fe  Fe56      1.0  0.21574  0.67411  0.62539  1.0000
  S   S106      1.0  0.22837  0.64514  0.65017  1.0000
  Fe  Fe57      1.0  0.20438  0.73424  0.61299  1.0000
  S   S107      1.0  0.19954  0.78120  0.61725  1.0000
  S   S108      1.0  0.20369  0.65606  0.59616  1.0000
  S   S109      1.0  0.19147  0.71885  0.58286  1.0000
  H   H726      1.0  0.10969  0.74959  0.64818  1.0000
  H   H727      1.0  0.05440  0.52709  0.54058  1.0000
  C   C419      1.0  0.21725  0.80072  0.65339  1.0000
  C   C420      1.0  0.02134  0.48768  0.50064  1.0000
  H   H728      1.0  0.15868  0.88291  0.64004  1.0000
  C   C421      1.0  0.02755  0.54879  0.53848  1.0000
  H   H729      1.0  0.23987  0.62635  0.59314  1.0000
  H   H730      1.0  0.22644  0.53559  0.59303  1.0000
  C   C422      1.0  0.23572  0.57363  0.57772  1.0000
  H   H731      1.0  0.25113  0.62029  0.44052  1.0000
  H   H732      1.0  0.02103  0.52471  0.41301  1.0000
  H   H733      1.0  0.19696  0.84036  0.61525  1.0000
  C   C423      1.0  0.24164  0.65757  0.53408  1.0000
  H   H734      1.0  0.03226  0.97546  0.49326  1.0000
  C   C424      1.0  0.25237  0.61039  0.50987  1.0000
  C   C425      1.0  0.23651  0.61027  0.52345  1.0000
  C   C426      1.0  0.23118  0.63365  0.53553  1.0000
  H   H735      1.0  0.22830  0.59186  0.52466  1.0000
  H   H736      1.0  0.21887  0.63327  0.54581  1.0000
  C   C427      1.0  0.22241  0.55122  0.64452  1.0000
  H   H737      1.0  0.16371  0.62375  0.66606  1.0000
  S   S110      1.0  0.02594  0.94168  0.60042  1.0000
  C   C428      1.0  0.22577  0.60902  0.64795  1.0000
  C   C429      1.0  0.21397  0.59788  0.63297  1.0000
  C   C430      1.0  0.21233  0.56920  0.63127  1.0000
  H   H738      1.0  0.02758  0.94670  0.33854  1.0000
  H   H739      1.0  0.18569  0.60835  0.66045  1.0000
  H   H740      1.0  0.20589  0.61128  0.62282  1.0000
  H   H741      1.0  0.20328  0.56084  0.61953  1.0000
  C   C431      1.0  0.01284  0.63838  0.56856  1.0000
  C   C432      1.0  0.25736  0.65787  0.52023  1.0000
  C   C433      1.0  0.18572  0.67071  0.50139  1.0000
  C   C434      1.0  0.20777  0.80707  0.63467  1.0000
  C   C435      1.0  0.20396  0.83504  0.62983  1.0000
  C   C436      1.0  0.20928  0.85632  0.64355  1.0000
  C   C437      1.0  0.22595  0.54552  0.57710  1.0000
  H   H742      1.0  0.12176  0.52966  0.62336  1.0000
  H   H743      1.0  0.19820  0.68352  0.46145  1.0000
  C   C438      1.0  0.11109  0.66868  0.66121  1.0000
  H   H744      1.0  0.10566  0.82799  0.62993  1.0000
  C   C439      1.0  0.23387  0.56221  0.65994  1.0000
  C   C440      1.0  0.14108  0.67990  0.64459  1.0000
  C   C441      1.0  0.13584  0.66759  0.62562  1.0000
  C   C442      1.0  0.11843  0.65500  0.62483  1.0000
  C   C443      1.0  0.10603  0.65584  0.64242  1.0000
  H   H745      1.0  0.15435  0.68975  0.64548  1.0000
  H   H746      1.0  0.11443  0.64477  0.61048  1.0000
  H   H747      1.0  0.09260  0.64635  0.64147  1.0000
  C   C444      1.0  0.12325  0.94180  0.61673  1.0000
  C   C445      1.0  0.14253  0.93674  0.61873  1.0000
  C   C446      1.0  0.15159  0.94361  0.63756  1.0000
  C   C447      1.0  0.09526  0.74180  0.64762  1.0000
  H   H748      1.0  0.20690  0.74047  0.41243  1.0000
  C   C448      1.0  0.11324  0.95449  0.63341  1.0000
  H   H749      1.0  0.15043  0.92725  0.60577  1.0000
  H   H750      1.0  0.16635  0.93918  0.63908  1.0000
  H   H751      1.0  0.09856  0.95930  0.63185  1.0000
  H   H752      1.0  0.04322  0.77700  0.66398  1.0000
  C   C449      1.0  0.03249  0.57504  0.62637  1.0000
  H   H753      1.0  0.21952  0.97040  0.61290  1.0000
  S   S111      1.0  0.25932  0.57937  0.49676  1.0000
  H   H754      1.0  0.22916  0.60441  0.43598  1.0000
  H   H755      1.0  0.12703  0.88295  0.63031  1.0000
  C   C450      1.0  0.04285  0.81794  0.64989  1.0000
  H   H756      1.0  0.13061  0.80542  0.64182  1.0000
  C   C451      1.0  0.21872  0.84997  0.66229  1.0000
  H   H757      1.0  0.22873  0.75289  0.45277  1.0000
  C   C452      1.0  0.02872  0.79284  0.61416  1.0000
  H   H758      1.0  0.19810  0.56421  0.58234  1.0000
  H   H759      1.0  0.18696  0.65812  0.66629  1.0000
  H   H760      1.0  0.19828  0.52926  0.57277  1.0000
  H   H761      1.0  0.23090  0.75124  0.41317  1.0000
  C   C453      1.0  0.08883  0.58374  0.65759  1.0000
  C   C454      1.0  0.12227  0.96143  0.65215  1.0000
  H   H762      1.0  0.08144  0.60123  0.64967  1.0000
  H   H763      1.0  0.03704  0.89438  0.52172  1.0000
  H   H764      1.0  0.03502  0.50853  0.55180  1.0000
  C   C455      1.0  0.09136  0.86635  0.62384  1.0000
  C   C456      1.0  0.01882  0.48275  0.42469  1.0000
  C   C457      1.0  0.07825  0.56263  0.58897  1.0000
  H   H765      1.0  0.25886  0.93602  0.36161  1.0000
  H   H766      1.0  0.23048  0.73026  0.48478  1.0000
  H   H767      1.0  0.11832  0.86544  0.65295  1.0000
  H   H768      1.0  0.23999  0.65698  0.47655  1.0000
  H   H769      1.0  0.08920  0.55124  0.57967  1.0000
  H   H770      1.0  0.14713  0.59734  0.63975  1.0000
  H   H771      1.0  0.03480  0.48783  0.49251  1.0000
  C   C458      1.0  0.20535  0.54936  0.57144  1.0000
  C   C459      1.0  0.03165  0.82150  0.61399  1.0000
  H   H772      1.0  0.02634  0.54133  0.52191  1.0000
  H   H773      1.0  0.25963  0.61256  0.56252  1.0000
  C   C460      1.0  0.21008  0.96675  0.59945  1.0000
  C   C461      1.0  0.14271  0.54496  0.59002  1.0000
  C   C462      1.0  0.13926  0.81961  0.65106  1.0000
  C   C463      1.0  0.07025  0.58546  0.57467  1.0000
  H   H774      1.0  0.23995  0.69926  0.49514  1.0000
  C   C464      1.0  0.02031  0.93986  0.42513  1.0000
  H   H775      1.0  0.20492  0.74183  0.45199  1.0000
  C   C465      1.0  0.10925  0.84857  0.62351  1.0000
  C   C466      1.0  0.21715  0.75203  0.42169  1.0000
  C   C467      1.0  0.23655  0.61851  0.44662  1.0000
  H   H776      1.0  0.13047  0.57780  0.60874  1.0000
  C   C468      1.0  0.22657  0.64666  0.44692  1.0000
  H   H777      1.0  0.08117  0.60056  0.57043  1.0000
  S   S112      1.0  0.03436  0.61055  0.62120  1.0000
  C   C469      1.0  0.08328  0.53270  0.63117  1.0000
  S   S113      1.0  0.04206  0.87034  0.63300  1.0000
  H   H778      1.0  0.02800  0.52002  0.44018  1.0000
  H   H779      1.0  0.02993  0.92998  0.41322  1.0000
  C   C470      1.0  0.01431  0.91850  0.44176  1.0000
  H   H780      1.0  0.02988  0.86193  0.51087  1.0000
  C   C471      1.0  0.15040  0.83765  0.61674  1.0000
  H   H781      1.0  0.02536  0.59886  0.56243  1.0000
  C   C472      1.0  0.02945  0.55745  0.60933  1.0000
  C   C473      1.0  0.23827  0.71104  0.48006  1.0000
  C   C474      1.0  0.15322  0.86166  0.60062  1.0000
  H   H782      1.0  0.15123  0.53612  0.60309  1.0000
  N   N24       1.0  0.25680  0.57300  0.57851  1.0000
  H   H783      1.0  0.02820  0.83378  0.60013  1.0000
  H   H784      1.0  0.10412  0.50361  0.64449  1.0000
  C   C475      1.0  0.15989  0.85068  0.57899  1.0000
  S   S114      1.0  0.06398  0.97537  0.58411  1.0000
  H   H785      1.0  0.25818  0.73046  0.45737  1.0000
  C   C476      1.0  0.03409  0.56404  0.64685  1.0000
  H   H786      1.0  0.02846  0.56600  0.59352  1.0000
  H   H787      1.0  0.14145  0.82208  0.60934  1.0000
  H   H788      1.0  0.16431  0.82715  0.61814  1.0000
  H   H789      1.0  0.03385  0.56935  0.53768  1.0000
  C   C477      1.0  0.12882  0.68023  0.66237  1.0000
  H   H790      1.0  0.11252  0.58785  0.63653  1.0000
  S   S115      1.0  0.03488  0.95261  0.53549  1.0000
  H   H791      1.0  0.11438  0.97124  0.66498  1.0000
  H   H792      1.0  0.26139  0.53694  0.55853  1.0000
  H   H793      1.0  0.16403  0.87581  0.60615  1.0000
  H   H794      1.0  0.14010  0.87379  0.59815  1.0000
  C   C478      1.0  0.04005  0.78923  0.65001  1.0000
  C   C479      1.0  0.14140  0.95576  0.65442  1.0000
  H   H795      1.0  0.06693  0.54808  0.59284  1.0000
  C   C480      1.0  0.04110  0.52922  0.54989  1.0000
  H   H796      1.0  0.08547  0.86812  0.64026  1.0000
  H   H797      1.0  0.18505  0.65745  0.51585  1.0000
  H   H798      1.0  0.21138  0.65150  0.49067  1.0000
  H   H799      1.0  0.05835  0.59640  0.58282  1.0000
  H   H800      1.0  0.23956  0.70872  0.43462  1.0000
  H   H801      1.0  0.02220  0.89418  0.48131  1.0000
  H   H802      1.0  0.21393  0.68140  0.50702  1.0000
  H   H803      1.0  0.14930  0.83706  0.57223  1.0000
  H   H804      1.0  0.16209  0.86821  0.56782  1.0000
  H   H805      1.0  0.17336  0.83897  0.58048  1.0000
  N   N25       1.0  0.09045  0.75041  0.60716  1.0000
  C   C481      1.0  0.08741  0.72026  0.60293  1.0000
  C   C482      1.0  0.08433  0.75667  0.62976  1.0000
  C   C483      1.0  0.07769  0.76696  0.59274  1.0000
  C   C484      1.0  0.11043  0.75881  0.60293  1.0000
  C   C485      1.0  0.12606  0.73679  0.60711  1.0000
  C   C486      1.0  0.08949  0.71149  0.57929  1.0000
  C   C487      1.0  0.07777  0.79877  0.59538  1.0000
  C   C488      1.0  0.12458  0.86190  0.63683  1.0000
  H   H806      1.0  0.21233  0.77393  0.42262  1.0000
  C   C489      1.0  0.14542  0.74942  0.60606  1.0000
  C   C490      1.0  0.09305  0.68047  0.57709  1.0000
  C   C491      1.0  0.06776  0.81346  0.57711  1.0000
  H   H807      1.0  0.07305  0.71454  0.60833  1.0000
  H   H808      1.0  0.09685  0.70684  0.61246  1.0000
  H   H809      1.0  0.08539  0.77900  0.63318  1.0000
  H   H810      1.0  0.06930  0.75172  0.63205  1.0000
  H   H811      1.0  0.06292  0.76031  0.59495  1.0000
  H   H812      1.0  0.08146  0.76304  0.57578  1.0000
  H   H813      1.0  0.11247  0.76524  0.58600  1.0000
  H   H814      1.0  0.11351  0.77739  0.61239  1.0000
  H   H815      1.0  0.12587  0.72040  0.59491  1.0000
  H   H816      1.0  0.12441  0.72669  0.62279  1.0000
  H   H817      1.0  0.07634  0.71681  0.57089  1.0000
  H   H818      1.0  0.10111  0.72225  0.57105  1.0000
  H   H819      1.0  0.09221  0.80649  0.59564  1.0000
  H   H820      1.0  0.07041  0.80490  0.61035  1.0000
  H   H821      1.0  0.01951  0.92660  0.49312  1.0000
  C   C492      1.0  0.15725  0.57997  0.64237  1.0000
  H   H822      1.0  0.20411  0.55710  0.55484  1.0000
  H   H823      1.0  0.17714  0.66139  0.48894  1.0000
  C   C493      1.0  0.03286  0.77653  0.63215  1.0000
  H   H824      1.0  0.14841  0.75799  0.58996  1.0000
  H   H825      1.0  0.14658  0.76593  0.61803  1.0000
  H   H826      1.0  0.15617  0.73320  0.60952  1.0000
  H   H827      1.0  0.08261  0.66875  0.58660  1.0000
  H   H828      1.0  0.09207  0.67451  0.56015  1.0000
  H   H829      1.0  0.10736  0.67497  0.58243  1.0000
  H   H830      1.0  0.07559  0.81019  0.56188  1.0000
  H   H831      1.0  0.05337  0.80572  0.57557  1.0000
  H   H832      1.0  0.06677  0.83597  0.58024  1.0000
  N   N26       1.0  0.09639  0.55486  0.62376  1.0000
  H   H833      1.0  0.08073  0.85696  0.61373  1.0000
  C   C494      1.0  0.08589  0.57486  0.60968  1.0000
  H   H834      1.0  0.21620  0.69848  0.43284  1.0000
  H   H835      1.0  0.23110  0.58608  0.56378  1.0000
  H   H836      1.0  0.17983  0.69142  0.50554  1.0000
  H   H837      1.0  0.22614  0.65434  0.43026  1.0000
  N   N27       1.0  0.14274  0.84565  0.63843  1.0000
  H   H838      1.0  0.22953  0.58423  0.59185  1.0000
  C   C495      1.0  0.15694  0.80264  0.65765  1.0000
  H   H839      1.0  0.20628  0.87765  0.63947  1.0000
  C   C496      1.0  0.12555  0.56068  0.59895  1.0000
  H   H840      1.0  0.11342  0.55718  0.65176  1.0000
  H   H841      1.0  0.06961  0.54181  0.63646  1.0000
  H   H842      1.0  0.07352  0.58386  0.61837  1.0000
  H   H843      1.0  0.09469  0.59284  0.60552  1.0000
  H   H844      1.0  0.25951  0.75649  0.49115  1.0000
  S   S116      1.0  0.26000  0.79893  0.35269  1.0000
  C   C497      1.0  0.11270  0.54121  0.61201  1.0000
  H   H845      1.0  0.16945  0.58233  0.63134  1.0000
  H   H846      1.0  0.07982  0.51913  0.61765  1.0000
  H   H847      1.0  0.06350  0.49984  0.66098  1.0000
  H   H848      1.0  0.22035  0.77939  0.65739  1.0000
  H   H849      1.0  0.01790  0.61771  0.53897  1.0000
  C   C498      1.0  0.21888  0.73995  0.44410  1.0000
  H   H850      1.0  0.11805  0.56990  0.58528  1.0000
  H   H851      1.0  0.15155  0.55921  0.58053  1.0000
  H   H852      1.0  0.10785  0.52511  0.60097  1.0000
  H   H853      1.0  0.21206  0.64338  0.45271  1.0000
  C   C499      1.0  0.16353  0.57937  0.66541  1.0000
  H   H854      1.0  0.20154  0.71185  0.47826  1.0000
  C   C500      1.0  0.20605  0.67278  0.49376  1.0000
  C   C501      1.0  0.15677  0.86336  0.64907  1.0000
  S   S117      1.0  0.20300  0.94736  0.65569  1.0000
  H   H855      1.0  0.13839  0.52799  0.57955  1.0000
  H   H856      1.0  0.23234  0.53131  0.56520  1.0000
  C   C502      1.0  0.03873  0.83421  0.63188  1.0000
  N   N28       1.0  0.22721  0.69477  0.46452  1.0000
  C   C503      1.0  0.22587  0.70943  0.44334  1.0000
  C   C504      1.0  0.23692  0.66718  0.46108  1.0000
  C   C505      1.0  0.20771  0.69144  0.47366  1.0000
  C   C506      1.0  0.02542  0.87966  0.52098  1.0000
  H   H857      1.0  0.02510  0.51561  0.59942  1.0000
  H   H858      1.0  0.25757  0.56777  0.54434  1.0000
  H   H859      1.0  0.04819  0.82760  0.66389  1.0000
  C   C507      1.0  0.02844  0.51053  0.42415  1.0000
  H   H860      1.0  0.22901  0.88606  0.34632  1.0000
  C   C508      1.0  0.01405  0.61189  0.55552  1.0000
  C   C509      1.0  0.09061  0.51357  0.64919  1.0000
  C   C510      1.0  0.10379  0.57056  0.64229  1.0000
  H   H861      1.0  0.11384  0.84635  0.60665  1.0000
  H   H862      1.0  0.16565  0.79670  0.64360  1.0000
  H   H863      1.0  0.02241  0.87195  0.53734  1.0000
  H   H864      1.0  0.20042  0.94994  0.60378  1.0000
  H   H865      1.0  0.09416  0.88727  0.61749  1.0000
  H   H866      1.0  0.20794  0.86776  0.34043  1.0000
  H   H867      1.0  0.15044  0.56028  0.63878  1.0000
  H   H868      1.0  0.04320  0.50804  0.41855  1.0000
  Fe  Fe58      1.0  0.04740  0.96922  0.61442  1.0000
  H   H869      1.0  0.07817  0.56888  0.66294  1.0000
  C   C511      1.0  0.22313  0.86544  0.34345  1.0000
  S   S118      1.0  0.02907  0.74045  0.63114  1.0000
  H   H870      1.0  0.17078  0.85301  0.64885  1.0000
  C   C512      1.0  0.07680  0.49089  0.65443  1.0000
  Fe  Fe59      1.0  0.21620  0.48538  0.66602  1.0000
  C   C513      1.0  0.25828  0.71880  0.47260  1.0000
  H   H871      1.0  0.23670  0.60927  0.46282  1.0000
  H   H872      1.0  0.21881  0.96004  0.58553  1.0000
  H   H873      1.0  0.14348  0.76267  0.65870  1.0000
  H   H874      1.0  0.03690  0.57749  0.65992  1.0000
  H   H875      1.0  0.02659  0.64853  0.56809  1.0000
  H   H876      1.0  0.02770  0.95696  0.43275  1.0000
  H   H877      1.0  0.02309  0.78323  0.60029  1.0000
  H   H878      1.0  0.02716  0.91031  0.44932  1.0000
  H   H879      1.0  0.25336  0.56394  0.61213  1.0000
  C   C514      1.0  0.25483  0.62146  0.59593  1.0000
  S   S119      1.0  0.01402  0.67018  0.65745  1.0000
  H   H880      1.0  0.25083  0.66988  0.45328  1.0000
  H   H881      1.0  0.25610  0.61155  0.61181  1.0000
  H   H882      1.0  0.25891  0.66156  0.60975  1.0000
  H   H883      1.0  0.03327  0.52701  0.66612  1.0000
  H   H884      1.0  0.25476  0.51653  0.59390  1.0000
  C   C515      1.0  0.23556  0.59103  0.66161  1.0000
  C   C516      1.0  0.02775  0.52897  0.61266  1.0000
  H   H885      1.0  0.16568  0.81450  0.66853  1.0000
  S   S120      1.0  0.26149  0.55610  0.43811  1.0000
  H   H886      1.0  0.04883  0.91450  0.66372  1.0000
  H   H887      1.0  0.02287  0.92028  0.64428  1.0000
  H   H888      1.0  0.13081  0.82418  0.66573  1.0000
  S   S121      1.0  0.02602  0.48238  0.63779  1.0000
  H   H889      1.0  0.17332  0.56141  0.66708  1.0000
  H   H890      1.0  0.14408  0.48176  0.61025  1.0000
  H   H891      1.0  0.08440  0.91352  0.66377  1.0000
  C   C517      1.0  0.08607  0.74740  0.66935  1.0000
  H   H892      1.0  0.26233  0.52250  0.63269  1.0000
  C   C518      1.0  0.15163  0.77601  0.66919  1.0000
  H   H893      1.0  0.05666  0.51030  0.80878  1.0000
  Fe  Fe60      1.0  0.02412  0.66354  0.69101  1.0000
  S   S122      1.0  0.19728  0.49849  0.69322  1.0000
  S   S123      1.0  0.04646  0.63219  0.68123  1.0000
  S   S124      1.0  0.04323  0.70023  0.68830  1.0000
  C   C519      1.0  0.03149  0.96962  0.70911  1.0000
  H   H894      1.0  0.04325  0.56527  0.69681  1.0000
  H   H895      1.0  0.23730  0.82248  0.81618  1.0000
  Fe  Fe61      1.0  0.21479  0.96940  0.71381  1.0000
  H   H896      1.0  0.25296  0.85543  0.86394  1.0000
  C   C520      1.0  0.08312  0.92831  0.67715  1.0000
  S   S125      1.0  0.23674  0.95621  0.68968  1.0000
  C   C521      1.0  0.19204  0.58553  0.69895  1.0000
  H   H897      1.0  0.02858  0.51162  0.83185  1.0000
  S   S126      1.0  0.19654  0.93347  0.70688  1.0000
  N   N29       1.0  0.02940  0.92293  0.68963  1.0000
  H   H898      1.0  0.06607  0.93622  0.70481  1.0000
  H   H899      1.0  0.03169  0.88031  0.67941  1.0000
  C   C522      1.0  0.01607  0.55196  0.70891  1.0000
  H   H900      1.0  0.21089  0.77201  0.87195  1.0000
  H   H901      1.0  0.18450  0.56571  0.69932  1.0000
  H   H902      1.0  0.01675  0.74131  0.96827  1.0000
  H   H903      1.0  0.13291  0.62315  0.73683  1.0000
  S   S127      1.0  0.26223  0.83010  0.91872  1.0000
  H   H904      1.0  0.14876  0.85411  0.68255  1.0000
  H   H905      1.0  0.21910  0.93913  0.95317  1.0000
  H   H906      1.0  0.02432  0.49528  0.80666  1.0000
  H   H907      1.0  0.18932  0.64185  0.71364  1.0000
  H   H908      1.0  0.13950  0.88645  0.67251  1.0000
  S   S128      1.0  0.25394  0.83850  0.97912  1.0000
  H   H909      1.0  0.21804  0.88392  0.76710  1.0000
  H   H910      1.0  0.03843  0.92886  0.72193  1.0000
  C   C523      1.0  0.06567  0.92265  0.69074  1.0000
  H   H911      1.0  0.25388  0.61482  0.88841  1.0000
  H   H912      1.0  0.06026  0.48979  0.83240  1.0000
  C   C524      1.0  0.02090  0.69999  0.99468  1.0000
  H   H913      1.0  0.25518  0.55994  0.98915  1.0000
  H   H914      1.0  0.07160  0.73960  0.66986  1.0000
  H   H915      1.0  0.24408  0.87931  0.74041  1.0000
  C   C525      1.0  0.03624  0.56040  0.71224  1.0000
  H   H916      1.0  0.08253  0.94968  0.67068  1.0000
  H   H917      1.0  0.16766  0.66510  0.68402  1.0000
  H   H918      1.0  0.24965  0.52034  0.73285  1.0000
  C   C526      1.0  0.16802  0.88713  0.68195  1.0000
  H   H919      1.0  0.16397  0.89401  0.69823  1.0000
  C   C527      1.0  0.25688  0.87841  0.83456  1.0000
  H   H920      1.0  0.03220  0.71527  0.99330  1.0000
  H   H921      1.0  0.23327  0.75551  0.86629  1.0000
  H   H922      1.0  0.19234  0.58855  0.73404  1.0000
  C   C528      1.0  0.18934  0.63588  0.69657  1.0000
  H   H923      1.0  0.24881  0.59665  0.96449  1.0000
  C   C529      1.0  0.24609  0.59967  0.92009  1.0000
  H   H924      1.0  0.01771  0.73751  0.91937  1.0000
  C   C530      1.0  0.23095  0.79865  0.85622  1.0000
  C   C531      1.0  0.02834  0.93806  0.71049  1.0000
  H   H925      1.0  0.23485  0.85220  0.84520  1.0000
  C   C532      1.0  0.24590  0.62194  0.90275  1.0000
  C   C533      1.0  0.25030  0.85223  0.84671  1.0000
  H   H926      1.0  0.01598  0.51526  0.90545  1.0000
  H   H927      1.0  0.24190  0.54852  0.67010  1.0000
  C   C534      1.0  0.25275  0.81984  0.81717  1.0000
  H   H928      1.0  0.17155  0.90559  0.67228  1.0000
  C   C535      1.0  0.23960  0.49941  0.78338  1.0000
  H   H929      1.0  0.25239  0.80426  0.77473  1.0000
  H   H930      1.0  0.03664  0.57867  0.72270  1.0000
  H   H931      1.0  0.02679  0.64032  0.91272  1.0000
  C   C536      1.0  0.21767  0.89558  0.75185  1.0000
  H   H932      1.0  0.02741  0.48921  0.87387  1.0000
  C   C537      1.0  0.19234  0.68747  0.69061  1.0000
  H   H933      1.0  0.23796  0.60797  0.93387  1.0000
  C   C538      1.0  0.25564  0.54883  0.94319  1.0000
  C   C539      1.0  0.24890  0.91738  0.75846  1.0000
  H   H934      1.0  0.01834  0.58806  0.77098  1.0000
  H   H935      1.0  0.22553  0.79329  0.84043  1.0000
  H   H936      1.0  0.24467  0.59938  0.67334  1.0000
  H   H937      1.0  0.23867  0.58165  0.91392  1.0000
  C   C540      1.0  0.24683  0.90427  0.84324  1.0000
  C   C541      1.0  0.16233  0.60803  0.70916  1.0000
  H   H938      1.0  0.10901  0.60954  0.67312  1.0000
  H   H939      1.0  0.08564  0.76983  0.67280  1.0000
  C   C542      1.0  0.20237  0.58709  0.72041  1.0000
  H   H940      1.0  0.18060  0.87333  0.68296  1.0000
  H   H941      1.0  0.18892  0.69156  0.70761  1.0000
  H   H942      1.0  0.13286  0.69013  0.67687  1.0000
  H   H943      1.0  0.25442  0.54326  0.92612  1.0000
  C   C543      1.0  0.25165  0.51649  0.79460  1.0000
  C   C544      1.0  0.09793  0.59477  0.67748  1.0000
  H   H944      1.0  0.25560  0.97079  0.00212  1.0000
  C   C545      1.0  0.18292  0.66135  0.68326  1.0000
  H   H945      1.0  0.23090  0.89547  0.93496  1.0000
  C   C546      1.0  0.23874  0.50057  0.76104  1.0000
  H   H946      1.0  0.20436  0.63266  0.69180  1.0000
  C   C547      1.0  0.23354  0.94394  0.95808  1.0000
  H   H947      1.0  0.23016  0.81679  0.68136  1.0000
  C   C548      1.0  0.21477  0.56144  0.72397  1.0000
  H   H948      1.0  0.02670  0.68625  0.93007  1.0000
  C   C549      1.0  0.25236  0.80317  0.85498  1.0000
  H   H949      1.0  0.22256  0.56364  0.73894  1.0000
  C   C550      1.0  0.24734  0.93183  0.94111  1.0000
  H   H950      1.0  0.18732  0.70543  0.68110  1.0000
  H   H951      1.0  0.25207  0.92284  0.83485  1.0000
  C   C551      1.0  0.02819  0.89238  0.69404  1.0000
  H   H952      1.0  0.03309  0.67826  0.96778  1.0000
  H   H953      1.0  0.24902  0.89025  0.95433  1.0000
  H   H954      1.0  0.03840  0.77197  0.93588  1.0000
  H   H955      1.0  0.25973  0.95332  0.73053  1.0000
  H   H956      1.0  0.10415  0.57756  0.68691  1.0000
  N   N30       1.0  0.17884  0.60944  0.69389  1.0000
  H   H957      1.0  0.23596  0.91051  0.72743  1.0000
  H   H958      1.0  0.15669  0.58684  0.70953  1.0000
  H   H959      1.0  0.20295  0.58328  0.68615  1.0000
  H   H960      1.0  0.06672  0.90090  0.69621  1.0000
  H   H961      1.0  0.21030  0.91576  0.75442  1.0000
  H   H962      1.0  0.20618  0.54274  0.72548  1.0000
  H   H963      1.0  0.24474  0.94080  0.92515  1.0000
  C   C552      1.0  0.01915  0.72851  0.95377  1.0000
  Fe  Fe62      1.0  0.18317  0.96026  0.68199  1.0000
  H   H964      1.0  0.03894  0.88569  0.70562  1.0000
  C   C553      1.0  0.12907  0.62199  0.71985  1.0000
  H   H965      1.0  0.11752  0.63719  0.71696  1.0000
  H   H966      1.0  0.20776  0.68538  0.68835  1.0000
  H   H967      1.0  0.21157  0.60516  0.72074  1.0000
  H   H968      1.0  0.22508  0.55869  0.71066  1.0000
  C   C554      1.0  0.21566  0.96236  0.99686  1.0000
  H   H969      1.0  0.16681  0.61171  0.72569  1.0000
  C   C555      1.0  0.02297  0.77490  0.93558  1.0000
  H   H970      1.0  0.25508  0.89274  0.92650  1.0000
  H   H971      1.0  0.01436  0.93548  0.71822  1.0000
  H   H972      1.0  0.23129  0.62680  0.89815  1.0000
  H   H973      1.0  0.22333  0.81727  0.86223  1.0000
  Fe  Fe63      1.0  0.21733  0.92193  0.68092  1.0000
  H   H974      1.0  0.23272  0.50815  0.96138  1.0000
  H   H975      1.0  0.23070  0.77989  0.88785  1.0000
  C   C556      1.0  0.25007  0.51920  0.75001  1.0000
  H   H976      1.0  0.24943  0.90657  0.86049  1.0000
  H   H977      1.0  0.04415  0.54318  0.71991  1.0000
  H   H978      1.0  0.23348  0.78706  0.78864  1.0000
  H   H979      1.0  0.14996  0.64980  0.70933  1.0000
  S   S129      1.0  0.15183  0.96406  0.67862  1.0000
  C   C557      1.0  0.14582  0.62861  0.70537  1.0000
  H   H980      1.0  0.25219  0.64113  0.90857  1.0000
  C   C558      1.0  0.25039  0.86611  0.99740  1.0000
  H   H981      1.0  0.04791  0.94941  0.67140  1.0000
  H   H982      1.0  0.24741  0.90782  0.77442  1.0000
  H   H983      1.0  0.24123  0.55497  0.94861  1.0000
  Fe  Fe64      1.0  0.06471  0.66906  0.67589  1.0000
  H   H984      1.0  0.02490  0.61899  0.74009  1.0000
  C   C559      1.0  0.24538  0.90068  0.93917  1.0000
  H   H985      1.0  0.23587  0.93158  0.97276  1.0000
  C   C560      1.0  0.01339  0.74711  0.93471  1.0000
  C   C561      1.0  0.23744  0.89992  0.74302  1.0000
  H   H986      1.0  0.04534  0.97428  0.70190  1.0000
  H   H987      1.0  0.03457  0.72477  0.95238  1.0000
  H   H988      1.0  0.12393  0.60108  0.71649  1.0000
  S   S130      1.0  0.09552  0.67066  0.68332  1.0000
  H   H989      1.0  0.02060  0.84358  0.71596  1.0000
  H   H990      1.0  0.14089  0.62813  0.68881  1.0000
  S   S131      1.0  0.22606  0.87606  0.68006  1.0000
  C   C562      1.0  0.05235  0.49133  0.81740  1.0000
  H   H991      1.0  0.25373  0.87734  0.81742  1.0000
  H   H992      1.0  0.23153  0.90326  0.84084  1.0000
  C   C563      1.0  0.04761  0.92800  0.67790  1.0000
  C   C564      1.0  0.22622  0.77506  0.87150  1.0000
  H   H993      1.0  0.25208  0.51534  0.81176  1.0000
  C   C565      1.0  0.24890  0.78751  0.78619  1.0000
  H   H994      1.0  0.25698  0.80817  0.87131  1.0000
  H   H995      1.0  0.02061  0.97997  0.69940  1.0000
  C   C566      1.0  0.03132  0.49292  0.82216  1.0000
  N   N31       1.0  0.23484  0.97450  0.96221  1.0000
  H   H996      1.0  0.20964  0.88366  0.74026  1.0000
  C   C567      1.0  0.01877  0.68489  0.97326  1.0000
  H   H997      1.0  0.01816  0.78654  0.94991  1.0000
  H   H998      1.0  0.24246  0.49606  0.93618  1.0000
  H   H999      1.0  0.01649  0.53336  0.69883  1.0000
  H   H1000     1.0  0.20734  0.94543  0.99033  1.0000
  H   H1001     1.0  0.09581  0.92592  0.68694  1.0000
  H   H1002     1.0  0.08725  0.60571  0.68756  1.0000
  H   H1003     1.0  0.14329  0.78065  0.68388  1.0000
  H   H1004     1.0  0.24161  0.93777  0.75996  1.0000
  C   C568      1.0  0.15182  0.87208  0.67220  1.0000
  C   C569      1.0  0.24560  0.50032  0.95306  1.0000
  H   H1005     1.0  0.15099  0.57611  0.67569  1.0000
  C   C570      1.0  0.17316  0.60655  0.67106  1.0000
  H   H1006     1.0  0.25488  0.77419  0.81788  1.0000
  H   H1007     1.0  0.04145  0.97350  0.74148  1.0000
  H   H1008     1.0  0.16455  0.76441  0.67370  1.0000
  H   H1009     1.0  0.09415  0.73651  0.68190  1.0000
  H   H1010     1.0  0.25674  0.94982  0.79244  1.0000
  H   H1011     1.0  0.01943  0.78731  0.92125  1.0000
  H   H1012     1.0  0.01581  0.95502  0.67107  1.0000
  H   H1013     1.0  0.23088  0.48516  0.79212  1.0000
  H   H1014     1.0  0.25365  0.76752  0.77918  1.0000
  H   H1015     1.0  0.25894  0.78276  0.85143  1.0000
  N   N32       1.0  0.25897  0.82502  0.83953  1.0000
  C   C571      1.0  0.26190  0.53662  0.76126  1.0000
  C   C572      1.0  0.25857  0.79171  0.80733  1.0000
  H   H1016     1.0  0.01271  0.58483  0.68569  1.0000
  H   H1017     1.0  0.01652  0.97960  0.73877  1.0000
  H   H1018     1.0  0.25849  0.83556  0.80608  1.0000
  H   H1019     1.0  0.26193  0.93563  0.94558  1.0000
  C   C573      1.0  0.01353  0.93327  0.67602  1.0000
  C   C574      1.0  0.26119  0.52120  0.95438  1.0000
  C   C575      1.0  0.31895  0.40572  0.03681  1.0000
  C   C576      1.0  0.26812  0.36622  0.01193  1.0000
  H   H1020     1.0  0.44238  0.08992  0.30651  1.0000
  S   S132      1.0  0.48577  0.05817  0.31181  1.0000
  H   H1021     1.0  0.37233  0.36939  0.32828  1.0000
  C   C577      1.0  0.29095  0.44423  0.05890  1.0000
  H   H1022     1.0  0.42437  0.12568  0.33420  1.0000
  H   H1023     1.0  0.33446  0.38897  0.00958  1.0000
  H   H1024     1.0  0.27043  0.19283  0.14491  1.0000
  H   H1025     1.0  0.42343  0.06931  0.31622  1.0000
  C   C578      1.0  0.49158  0.08648  0.29494  1.0000
  H   H1026     1.0  0.43701  0.00014  0.04537  1.0000
  C   C579      1.0  0.32282  0.38299  0.02047  1.0000
  H   H1027     1.0  0.28628  0.30219  0.25752  1.0000
  C   C580      1.0  0.45893  0.00694  0.06802  1.0000
  C   C581      1.0  0.48164  0.11165  0.29559  1.0000
  H   H1028     1.0  0.32680  0.36325  0.02844  1.0000
  H   H1029     1.0  0.28019  0.43916  0.04708  1.0000
  H   H1030     1.0  0.47103  0.11519  0.30781  1.0000
  H   H1031     1.0  0.45386  0.99641  0.22298  1.0000
  C   C582      1.0  0.50680  0.45261  0.03776  1.0000
  H   H1032     1.0  0.27951  0.36370  0.26995  1.0000
  H   H1033     1.0  0.48277  0.22993  0.22837  1.0000
  H   H1034     1.0  0.27995  0.18922  0.06765  1.0000
  H   H1035     1.0  0.48411  0.07411  0.19891  1.0000
  H   H1036     1.0  0.50218  0.42471  0.01197  1.0000
  H   H1037     1.0  0.31025  0.37979  0.01079  1.0000
  C   C583      1.0  0.43050  0.07728  0.30161  1.0000
  H   H1038     1.0  0.35000  0.39337  0.11222  1.0000
  C   C584      1.0  0.50557  0.08256  0.27910  1.0000
  C   C585      1.0  0.49403  0.46638  0.00316  1.0000
  H   H1039     1.0  0.48118  0.04377  0.26717  1.0000
  C   C586      1.0  0.49869  0.12778  0.26376  1.0000
  C   C587      1.0  0.43937  0.02101  0.24841  1.0000
  C   C588      1.0  0.26634  0.18270  0.06143  1.0000
  C   C589      1.0  0.26807  0.37756  0.30957  1.0000
  H   H1040     1.0  0.31514  0.42466  0.02776  1.0000
  C   C590      1.0  0.48636  0.25174  0.22510  1.0000
  C   C591      1.0  0.50985  0.01057  0.08779  1.0000
  H   H1041     1.0  0.42536  0.03160  0.24889  1.0000
  H   H1042     1.0  0.45231  0.02694  0.07276  1.0000
  H   H1043     1.0  0.27030  0.45935  0.08307  1.0000
  H   H1044     1.0  0.26984  0.37872  0.12038  1.0000
  H   H1045     1.0  0.28741  0.33133  0.23946  1.0000
  H   H1046     1.0  0.27835  0.36486  0.07348  1.0000
  H   H1047     1.0  0.30438  0.18605  0.28175  1.0000
  C   C592      1.0  0.50742  0.25357  0.22108  1.0000
  C   C593      1.0  0.48232  0.00603  0.24909  1.0000
  C   C594      1.0  0.26618  0.39292  0.00359  1.0000
  H   H1048     1.0  0.48441  0.02570  0.05773  1.0000
  H   H1049     1.0  0.50986  0.01582  0.26080  1.0000
  H   H1050     1.0  0.43569  0.01933  0.21391  1.0000
  H   H1051     1.0  0.29600  0.21782  0.29352  1.0000
  N   N33       1.0  0.29797  0.41818  0.06982  1.0000
  C   C595      1.0  0.30308  0.39757  0.05264  1.0000
  C   C596      1.0  0.28226  0.40748  0.08391  1.0000
  C   C597      1.0  0.31458  0.42552  0.08283  1.0000
  C   C598      1.0  0.32488  0.40138  0.09418  1.0000
  C   C599      1.0  0.26251  0.33117  0.26012  1.0000
  H   H1052     1.0  0.27619  0.36297  0.31972  1.0000
  H   H1053     1.0  0.47401  0.98710  0.24798  1.0000
  C   C600      1.0  0.34312  0.41086  0.10369  1.0000
  H   H1054     1.0  0.45728  0.01662  0.03413  1.0000
  H   H1055     1.0  0.29051  0.39339  0.04316  1.0000
  H   H1056     1.0  0.30735  0.37730  0.05944  1.0000
  H   H1057     1.0  0.30520  0.19034  0.31017  1.0000
  H   H1058     1.0  0.27588  0.19504  0.33125  1.0000
  H   H1059     1.0  0.32493  0.43689  0.07289  1.0000
  H   H1060     1.0  0.31026  0.44015  0.09564  1.0000
  H   H1061     1.0  0.32848  0.38420  0.08322  1.0000
  H   H1062     1.0  0.31607  0.39370  0.10757  1.0000
  H   H1063     1.0  0.33214  0.40908  0.04528  1.0000
  S   S133      1.0  0.28004  0.27384  0.30001  1.0000
  H   H1064     1.0  0.29530  0.36739  0.09378  1.0000
  H   H1065     1.0  0.48466  0.05643  0.08691  1.0000
  H   H1066     1.0  0.48858  0.06762  0.23783  1.0000
  C   C601      1.0  0.43757  0.05316  0.28790  1.0000
  H   H1067     1.0  0.49009  0.47180  0.23782  1.0000
  H   H1068     1.0  0.29657  0.40434  0.33016  1.0000
  Fe  Fe65      1.0  0.28470  0.28914  0.33385  1.0000
  C   C602      1.0  0.48419  0.07717  0.12672  1.0000
  C   C603      1.0  0.49394  0.99081  0.00818  1.0000
  C   C604      1.0  0.27740  0.18316  0.29796  1.0000
  N   N34       1.0  0.45457  0.04160  0.25186  1.0000
  C   C605      1.0  0.45982  0.05575  0.23116  1.0000
  H   H1069     1.0  0.49031  0.08247  0.14222  1.0000
  C   C606      1.0  0.44684  0.06357  0.26683  1.0000
  H   H1070     1.0  0.27112  0.16464  0.10065  1.0000
  H   H1071     1.0  0.46705  0.01754  0.27731  1.0000
  C   C607      1.0  0.47536  0.07738  0.23230  1.0000
  H   H1072     1.0  0.45358  0.99058  0.07875  1.0000
  H   H1073     1.0  0.26639  0.34630  0.10745  1.0000
  H   H1074     1.0  0.50781  0.01080  0.17727  1.0000
  H   H1075     1.0  0.35288  0.41807  0.09096  1.0000
  S   S134      1.0  0.50603  0.15471  0.18172  1.0000
  H   H1076     1.0  0.48844  0.45282  0.20117  1.0000
  H   H1077     1.0  0.44721  0.06618  0.22436  1.0000
  H   H1078     1.0  0.46471  0.04071  0.21897  1.0000
  H   H1079     1.0  0.27605  0.24247  0.14366  1.0000
  H   H1080     1.0  0.48882  0.09269  0.11478  1.0000
  H   H1081     1.0  0.43629  0.07691  0.25863  1.0000
  H   H1082     1.0  0.45808  0.07753  0.27164  1.0000
  C   C608      1.0  0.48280  0.98990  0.10552  1.0000
  H   H1083     1.0  0.46785  0.99297  0.11038  1.0000
  H   H1084     1.0  0.29948  0.43187  0.31106  1.0000
  C   C609      1.0  0.45251  0.00058  0.04559  1.0000
  H   H1085     1.0  0.47122  0.09452  0.24310  1.0000
  H   H1086     1.0  0.49749  0.28461  0.14586  1.0000
  H   H1087     1.0  0.46872  0.07823  0.12849  1.0000
  H   H1088     1.0  0.50779  0.11047  0.00721  1.0000
  C   C610      1.0  0.28197  0.39890  0.30041  1.0000
  H   H1089     1.0  0.29280  0.47485  0.08462  1.0000
  H   H1090     1.0  0.50603  0.43537  0.21675  1.0000
  C   C611      1.0  0.47949  0.09018  0.21048  1.0000
  C   C612      1.0  0.26649  0.19573  0.31734  1.0000
  H   H1091     1.0  0.48692  0.03384  0.13315  1.0000
  H   H1092     1.0  0.50634  0.04847  0.11892  1.0000
  H   H1093     1.0  0.27160  0.30374  0.23463  1.0000
  H   H1094     1.0  0.27770  0.42908  0.32573  1.0000
  C   C613      1.0  0.50523  0.48010  0.04424  1.0000
  H   H1095     1.0  0.42673  0.15997  0.32347  1.0000
  H   H1096     1.0  0.26846  0.41255  0.07679  1.0000
  C   C614      1.0  0.28934  0.41713  0.31795  1.0000
  H   H1097     1.0  0.44766  0.04097  0.29746  1.0000
  H   H1098     1.0  0.47863  0.25890  0.21086  1.0000
  H   H1099     1.0  0.26796  0.16159  0.05480  1.0000
  C   C615      1.0  0.49091  0.04827  0.12016  1.0000
  C   C616      1.0  0.50112  0.44592  0.01715  1.0000
  H   H1100     1.0  0.48655  0.98965  0.06084  1.0000
  C   C617      1.0  0.48224  0.03976  0.09885  1.0000
  S   S135      1.0  0.50140  0.15336  0.24362  1.0000
  H   H1101     1.0  0.27918  0.16046  0.29934  1.0000
  H   H1102     1.0  0.46693  0.10137  0.20446  1.0000
  H   H1103     1.0  0.27324  0.20489  0.11781  1.0000
  N   N35       1.0  0.48883  0.01222  0.09019  1.0000
  H   H1104     1.0  0.46686  0.03993  0.10176  1.0000
  C   C618      1.0  0.29692  0.19512  0.29580  1.0000
  H   H1105     1.0  0.43913  0.00565  0.26169  1.0000
  H   H1106     1.0  0.26791  0.14981  0.13567  1.0000
  H   H1107     1.0  0.42540  0.04012  0.28485  1.0000
  C   C619      1.0  0.43984  0.00513  0.22704  1.0000
  S   S136      1.0  0.51067  0.23149  0.16057  1.0000
  H   H1108     1.0  0.27683  0.10115  0.14581  1.0000
  H   H1109     1.0  0.28201  0.41815  0.09955  1.0000
  H   H1110     1.0  0.34035  0.42781  0.11520  1.0000
  C   C620      1.0  0.48054  0.00847  0.06857  1.0000
  C   C621      1.0  0.26678  0.36897  0.10495  1.0000
  H   H1111     1.0  0.29432  0.38820  0.29298  1.0000
  H   H1112     1.0  0.28070  0.33448  0.28722  1.0000
  C   C622      1.0  0.50206  0.45527  0.20903  1.0000
  C   C623      1.0  0.28179  0.37591  0.08824  1.0000
  H   H1113     1.0  0.27705  0.24724  0.25971  1.0000
  H   H1114     1.0  0.48191  0.26434  0.23906  1.0000
  H   H1115     1.0  0.27000  0.18803  0.28300  1.0000
  C   C624      1.0  0.48513  0.13209  0.28002  1.0000
  H   H1116     1.0  0.42033  0.09047  0.29284  1.0000
  C   C625      1.0  0.47125  0.02798  0.26222  1.0000
  H   H1117     1.0  0.47710  0.15127  0.28040  1.0000
  H   H1118     1.0  0.48604  0.01359  0.23293  1.0000
  H   H1119     1.0  0.49068  0.99120  0.12057  1.0000
  H   H1120     1.0  0.49089  0.10519  0.21186  1.0000
  H   H1121     1.0  0.26443  0.21790  0.31333  1.0000
  H   H1122     1.0  0.49774  0.99002  0.27633  1.0000
  H   H1123     1.0  0.41167  0.98932  0.23105  1.0000
  C   C626      1.0  0.27080  0.34816  0.27826  1.0000
  H   H1124     1.0  0.26622  0.14826  0.33260  1.0000
  C   C627      1.0  0.50058  0.99784  0.25995  1.0000
  H   H1125     1.0  0.47613  0.10315  0.02095  1.0000
  C   C628      1.0  0.50065  0.47805  0.22570  1.0000
  C   C629      1.0  0.27795  0.31627  0.24719  1.0000
  C   C630      1.0  0.50914  0.10305  0.26361  1.0000
  H   H1126     1.0  0.27524  0.41245  0.28837  1.0000
  C   C631      1.0  0.28231  0.46704  0.07358  1.0000
  H   H1127     1.0  0.50553  0.29778  0.22670  1.0000
  H   H1128     1.0  0.30242  0.45419  0.04974  1.0000
  C   C632      1.0  0.26380  0.20506  0.13202  1.0000
  C   C633      1.0  0.50880  0.99514  0.02199  1.0000
  H   H1129     1.0  0.50691  0.28757  0.19963  1.0000
  H   H1130     1.0  0.51100  0.23989  0.20747  1.0000
  C   C634      1.0  0.26297  0.25066  0.26588  1.0000
  H   H1131     1.0  0.51030  0.33599  0.20382  1.0000
  C   C635      1.0  0.47847  0.10507  0.00350  1.0000
  H   H1132     1.0  0.43156  0.22578  0.41531  1.0000
  Fe  Fe66      1.0  0.46154  0.27728  0.47327  1.0000
  S   S137      1.0  0.47780  0.29062  0.44398  1.0000
  S   S138      1.0  0.47774  0.27401  0.50435  1.0000
  Fe  Fe67      1.0  0.42439  0.27908  0.44876  1.0000
  S   S139      1.0  0.43865  0.29159  0.41845  1.0000
  S   S140      1.0  0.39265  0.27678  0.44932  1.0000
  Fe  Fe68      1.0  0.46030  0.25933  0.42745  1.0000
  S   S141      1.0  0.47084  0.22873  0.40241  1.0000
  Fe  Fe69      1.0  0.45429  0.32154  0.43797  1.0000
  S   S142      1.0  0.45174  0.36852  0.43334  1.0000
  S   S143      1.0  0.44507  0.24492  0.45691  1.0000
  S   S144      1.0  0.43911  0.30999  0.46837  1.0000
  H   H1133     1.0  0.37041  0.98325  0.40990  1.0000
  C   C636      1.0  0.35750  0.99502  0.40556  1.0000
  Fe  Fe70      1.0  0.42851  0.05482  0.36401  1.0000
  S   S145      1.0  0.43969  0.03809  0.39453  1.0000
  S   S146      1.0  0.39750  0.06330  0.35970  1.0000
  S   S147      1.0  0.48117  0.03828  0.37176  1.0000
  Fe  Fe71      1.0  0.45714  0.00878  0.37450  1.0000
  Fe  Fe72      1.0  0.46759  0.05519  0.34215  1.0000
  Fe  Fe73      1.0  0.46218  0.06928  0.38886  1.0000
  S   S148      1.0  0.46811  0.09843  0.41596  1.0000
  H   H1134     1.0  0.38941  0.34369  0.36538  1.0000
  H   H1135     1.0  0.49581  0.12349  0.44387  1.0000
  H   H1136     1.0  0.29494  0.01096  0.37068  1.0000
  S   S149      1.0  0.29888  0.03744  0.45669  1.0000
  C   C637      1.0  0.42166  0.44451  0.36019  1.0000
  Fe  Fe74      1.0  0.28173  0.08621  0.41241  1.0000
  S   S150      1.0  0.29258  0.10208  0.44297  1.0000
  H   H1137     1.0  0.42136  0.31108  0.38032  1.0000
  Fe  Fe75      1.0  0.31483  0.06920  0.43824  1.0000
  S   S151      1.0  0.34564  0.07585  0.44225  1.0000
  H   H1138     1.0  0.44078  0.14910  0.34558  1.0000
  S   S152      1.0  0.30510  0.05523  0.40675  1.0000
  Fe  Fe76      1.0  0.31762  0.30150  0.36352  1.0000
  S   S153      1.0  0.29860  0.31373  0.39077  1.0000
  S   S154      1.0  0.34924  0.30236  0.36398  1.0000
  Fe  Fe77      1.0  0.28183  0.33680  0.36621  1.0000
  Fe  Fe78      1.0  0.28234  0.27653  0.38129  1.0000
  C   C638      1.0  0.42729  0.32276  0.36678  1.0000
  H   H1139     1.0  0.47909  0.14395  0.47285  1.0000
  H   H1140     1.0  0.34969  0.44775  0.43769  1.0000
  H   H1141     1.0  0.49018  0.15734  0.49506  1.0000
  C   C639      1.0  0.38162  0.46487  0.41416  1.0000
  C   C640      1.0  0.28079  0.20029  0.38071  1.0000
  C   C641      1.0  0.28158  0.17181  0.37664  1.0000
  H   H1142     1.0  0.29638  0.15531  0.46572  1.0000
  H   H1143     1.0  0.36165  0.01684  0.40403  1.0000
  H   H1144     1.0  0.32637  0.45768  0.43222  1.0000
  C   C642      1.0  0.44651  0.30981  0.36151  1.0000
  C   C643      1.0  0.41140  0.14156  0.37480  1.0000
  H   H1145     1.0  0.35207  0.44007  0.38026  1.0000
  H   H1146     1.0  0.41164  0.46870  0.41743  1.0000
  C   C644      1.0  0.36577  0.37628  0.34356  1.0000
  H   H1147     1.0  0.28421  0.28006  0.44069  1.0000
  C   C645      1.0  0.35958  0.07080  0.41916  1.0000
  C   C646      1.0  0.35244  0.07559  0.39889  1.0000
  C   C647      1.0  0.36407  0.07249  0.38074  1.0000
  C   C648      1.0  0.38296  0.06479  0.38271  1.0000
  C   C649      1.0  0.38992  0.05926  0.40295  1.0000
  C   C650      1.0  0.37832  0.06240  0.42110  1.0000
  H   H1148     1.0  0.33815  0.08270  0.39722  1.0000
  H   H1149     1.0  0.35851  0.07679  0.36516  1.0000
  H   H1150     1.0  0.40432  0.05328  0.40484  1.0000
  H   H1151     1.0  0.38389  0.05840  0.43671  1.0000
  C   C651      1.0  0.38088  0.28502  0.42555  1.0000
  C   C652      1.0  0.38974  0.28208  0.40566  1.0000
  C   C653      1.0  0.37993  0.28773  0.38697  1.0000
  C   C654      1.0  0.36108  0.29617  0.38793  1.0000
  C   C655      1.0  0.35223  0.29973  0.40780  1.0000
  C   C656      1.0  0.36215  0.29426  0.42654  1.0000
  H   H1152     1.0  0.40410  0.27512  0.40459  1.0000
  H   H1153     1.0  0.38692  0.28510  0.37167  1.0000
  H   H1154     1.0  0.33784  0.30697  0.40871  1.0000
  H   H1155     1.0  0.35541  0.29746  0.44187  1.0000
  C   C657      1.0  0.46904  0.19258  0.40614  1.0000
  C   C658      1.0  0.47301  0.17482  0.38899  1.0000
  C   C659      1.0  0.47221  0.14597  0.39157  1.0000
  C   C660      1.0  0.46769  0.13458  0.41146  1.0000
  C   C661      1.0  0.46342  0.15233  0.42851  1.0000
  C   C662      1.0  0.46397  0.18115  0.42586  1.0000
  H   H1156     1.0  0.47694  0.18342  0.37366  1.0000
  H   H1157     1.0  0.47567  0.13257  0.37832  1.0000
  H   H1158     1.0  0.45947  0.14370  0.44378  1.0000
  H   H1159     1.0  0.46077  0.19446  0.43917  1.0000
  C   C663      1.0  0.45882  0.39449  0.41492  1.0000
  C   C664      1.0  0.46983  0.38867  0.39680  1.0000
  C   C665      1.0  0.47450  0.41003  0.38240  1.0000
  C   C666      1.0  0.46812  0.43738  0.38581  1.0000
  C   C667      1.0  0.45710  0.44316  0.40393  1.0000
  C   C668      1.0  0.45258  0.42188  0.41842  1.0000
  H   H1160     1.0  0.47482  0.36778  0.39393  1.0000
  H   H1161     1.0  0.48311  0.40534  0.36850  1.0000
  H   H1162     1.0  0.45218  0.46407  0.40686  1.0000
  H   H1163     1.0  0.44410  0.42664  0.43241  1.0000
  C   C669      1.0  0.48533  0.24390  0.51827  1.0000
  C   C670      1.0  0.47613  0.21887  0.51698  1.0000
  C   C671      1.0  0.48201  0.19606  0.52943  1.0000
  H   H1164     1.0  0.46053  0.11764  0.50108  1.0000
  C   C672      1.0  0.41145  0.15820  0.35363  1.0000
  H   H1165     1.0  0.28328  0.21476  0.36794  1.0000
  H   H1166     1.0  0.46433  0.21722  0.50662  1.0000
  H   H1167     1.0  0.47465  0.17693  0.52851  1.0000
  C   C673      1.0  0.46131  0.30627  0.60135  1.0000
  H   H1168     1.0  0.35671  0.42526  0.40545  1.0000
  C   C674      1.0  0.27293  0.43585  0.37912  1.0000
  H   H1169     1.0  0.28813  0.41774  0.43627  1.0000
  H   H1170     1.0  0.34217  0.12694  0.37689  1.0000
  H   H1171     1.0  0.51157  0.29828  0.56334  1.0000
  H   H1172     1.0  0.33494  0.02350  0.38010  1.0000
  C   C675      1.0  0.36074  0.14930  0.39747  1.0000
  C   C676      1.0  0.48838  0.32028  0.57989  1.0000
  H   H1173     1.0  0.38557  0.39284  0.40848  1.0000
  C   C677      1.0  0.41802  0.22016  0.40853  1.0000
  H   H1174     1.0  0.42937  0.45367  0.34646  1.0000
  H   H1175     1.0  0.40665  0.45060  0.35909  1.0000
  H   H1176     1.0  0.39703  0.00469  0.34476  1.0000
  H   H1177     1.0  0.36486  0.01496  0.36520  1.0000
  N   N36       1.0  0.39691  0.15045  0.39136  1.0000
  H   H1178     1.0  0.28339  0.38031  0.41029  1.0000
  H   H1179     1.0  0.29394  0.28841  0.46609  1.0000
  H   H1180     1.0  0.34110  0.38293  0.39191  1.0000
  H   H1181     1.0  0.32369  0.41853  0.41401  1.0000
  C   C678      1.0  0.28129  0.45083  0.41451  1.0000
  H   H1182     1.0  0.38794  0.18628  0.40951  1.0000
  N   N37       1.0  0.32918  0.22212  0.44742  1.0000
  C   C679      1.0  0.31193  0.24055  0.44972  1.0000
  C   C680      1.0  0.32338  0.19264  0.45069  1.0000
  C   C681      1.0  0.34313  0.23040  0.46375  1.0000
  C   C682      1.0  0.33816  0.22490  0.42567  1.0000
  C   C683      1.0  0.32557  0.21876  0.40664  1.0000
  C   C684      1.0  0.31417  0.27116  0.44307  1.0000
  C   C685      1.0  0.36142  0.21254  0.46456  1.0000
  C   C686      1.0  0.31758  0.18464  0.47381  1.0000
  C   C687      1.0  0.30952  0.15581  0.47479  1.0000
  C   C688      1.0  0.33600  0.22370  0.38557  1.0000
  C   C689      1.0  0.27743  0.15270  0.39278  1.0000
  C   C690      1.0  0.37270  0.21936  0.48413  1.0000
  H   H1183     1.0  0.30685  0.24066  0.46652  1.0000
  H   H1184     1.0  0.30018  0.23237  0.44051  1.0000
  H   H1185     1.0  0.31130  0.18811  0.44048  1.0000
  H   H1186     1.0  0.33464  0.17791  0.44528  1.0000
  H   H1187     1.0  0.33650  0.23100  0.47992  1.0000
  H   H1188     1.0  0.34778  0.25180  0.46072  1.0000
  H   H1189     1.0  0.34390  0.24581  0.42342  1.0000
  H   H1190     1.0  0.35047  0.21062  0.42413  1.0000
  H   H1191     1.0  0.31288  0.23223  0.40676  1.0000
  H   H1192     1.0  0.32119  0.19697  0.40701  1.0000
  H   H1193     1.0  0.32587  0.28060  0.45135  1.0000
  H   H1194     1.0  0.31672  0.27298  0.42567  1.0000
  H   H1195     1.0  0.37041  0.21676  0.45035  1.0000
  H   H1196     1.0  0.35866  0.19018  0.46514  1.0000
  H   H1197     1.0  0.33263  0.40033  0.36818  1.0000
  H   H1198     1.0  0.30677  0.19909  0.48040  1.0000
  C   C691      1.0  0.42887  0.35401  0.37166  1.0000
  H   H1199     1.0  0.31973  0.14030  0.46822  1.0000
  H   H1200     1.0  0.30626  0.15015  0.49158  1.0000
  H   H1201     1.0  0.32737  0.21684  0.37222  1.0000
  H   H1202     1.0  0.33869  0.24601  0.38341  1.0000
  H   H1203     1.0  0.34954  0.21208  0.38494  1.0000
  H   H1204     1.0  0.42734  0.45309  0.37497  1.0000
  H   H1205     1.0  0.37595  0.24164  0.48431  1.0000
  H   H1206     1.0  0.36482  0.21400  0.49893  1.0000
  H   H1207     1.0  0.38611  0.20735  0.48380  1.0000
  N   N38       1.0  0.41090  0.36922  0.37799  1.0000
  C   C692      1.0  0.41516  0.39944  0.37986  1.0000
  C   C693      1.0  0.40524  0.35854  0.39976  1.0000
  H   H1208     1.0  0.50313  0.10838  0.50356  1.0000
  H   H1209     1.0  0.28167  0.23515  0.49424  1.0000
  H   H1210     1.0  0.29748  0.00691  0.34233  1.0000
  C   C694      1.0  0.38670  0.37014  0.40959  1.0000
  C   C695      1.0  0.38504  0.36273  0.43321  1.0000
  H   H1211     1.0  0.47307  0.28081  0.62742  1.0000
  C   C696      1.0  0.30486  0.01273  0.35692  1.0000
  C   C697      1.0  0.42680  0.14751  0.33835  1.0000
  H   H1212     1.0  0.40247  0.41171  0.38427  1.0000
  H   H1213     1.0  0.40354  0.33593  0.39968  1.0000
  H   H1214     1.0  0.41662  0.36211  0.41122  1.0000
  H   H1215     1.0  0.42581  0.14254  0.38088  1.0000
  S   S155      1.0  0.50434  0.16848  0.55826  1.0000
  H   H1216     1.0  0.37726  0.12613  0.37425  1.0000
  H   H1217     1.0  0.37341  0.39160  0.37397  1.0000
  H   H1218     1.0  0.36082  0.01760  0.44596  1.0000
  N   N39       1.0  0.35024  0.98503  0.38463  1.0000
  H   H1219     1.0  0.37470  0.36097  0.40147  1.0000
  H   H1220     1.0  0.37108  0.36941  0.43959  1.0000
  H   H1221     1.0  0.38673  0.34016  0.43569  1.0000
  H   H1222     1.0  0.49708  0.32139  0.59424  1.0000
  S   S156      1.0  0.30252  0.26304  0.35555  1.0000
  H   H1223     1.0  0.44776  0.30822  0.52295  1.0000
  H   H1224     1.0  0.44819  0.29440  0.60139  1.0000
  H   H1225     1.0  0.36108  0.13289  0.40984  1.0000
  S   S157      1.0  0.47418  0.46338  0.36692  1.0000
  C   C698      1.0  0.49706  0.19799  0.54335  1.0000
  H   H1226     1.0  0.40959  0.11940  0.37090  1.0000
  H   H1227     1.0  0.29841  0.30993  0.44316  1.0000
  H   H1228     1.0  0.40666  0.22743  0.41957  1.0000
  H   H1229     1.0  0.46332  0.31079  0.65689  1.0000
  C   C699      1.0  0.34238  0.14669  0.38566  1.0000
  S   S158      1.0  0.30198  0.32653  0.33931  1.0000
  H   H1230     1.0  0.43950  0.40844  0.35943  1.0000
  C   C700      1.0  0.41796  0.12103  0.41702  1.0000
  S   S159      1.0  0.45001  0.08750  0.35922  1.0000
  S   S160      1.0  0.27274  0.24548  0.40619  1.0000
  H   H1231     1.0  0.33042  0.14711  0.39721  1.0000
  S   S161      1.0  0.28526  0.47657  0.43384  1.0000
  C   C701      1.0  0.41806  0.10924  0.43960  1.0000
  H   H1232     1.0  0.41962  0.17973  0.42185  1.0000
  H   H1233     1.0  0.45044  0.28187  0.56621  1.0000
  S   S162      1.0  0.44466  0.02425  0.34393  1.0000
  H   H1234     1.0  0.38429  0.44455  0.40662  1.0000
  H   H1235     1.0  0.43949  0.35634  0.38422  1.0000
  H   H1236     1.0  0.45273  0.31955  0.34707  1.0000
  C   C702      1.0  0.27352  0.16224  0.41337  1.0000
  H   H1237     1.0  0.41474  0.12570  0.45135  1.0000
  H   H1238     1.0  0.26888  0.16628  0.51532  1.0000
  S   S163      1.0  0.27139  0.38180  0.36593  1.0000
  C   C703      1.0  0.27573  0.40795  0.38486  1.0000
  H   H1239     1.0  0.49491  0.31407  0.54561  1.0000
  H   H1240     1.0  0.31650  0.38503  0.38670  1.0000
  C   C704      1.0  0.34386  0.99322  0.42505  1.0000
  H   H1241     1.0  0.40777  0.09262  0.44142  1.0000
  H   H1242     1.0  0.42858  0.13707  0.41606  1.0000
  H   H1243     1.0  0.48668  0.22598  0.61534  1.0000
  C   C705      1.0  0.45675  0.31382  0.64116  1.0000
  H   H1244     1.0  0.49337  0.27239  0.59987  1.0000
  C   C706      1.0  0.47367  0.11252  0.50954  1.0000
  H   H1245     1.0  0.37907  0.46163  0.43142  1.0000
  H   H1246     1.0  0.45659  0.32821  0.59989  1.0000
  H   H1247     1.0  0.35571  0.39341  0.34009  1.0000
  C   C707      1.0  0.41752  0.18899  0.40588  1.0000
  H   H1248     1.0  0.42849  0.30528  0.54184  1.0000
  H   H1249     1.0  0.38639  0.40519  0.35187  1.0000
  H   H1250     1.0  0.38995  0.11363  0.40912  1.0000
  H   H1251     1.0  0.41410  0.18028  0.35653  1.0000
  C   C708      1.0  0.27594  0.20987  0.40103  1.0000
  H   H1252     1.0  0.28510  0.16451  0.36085  1.0000
  H   H1253     1.0  0.42244  0.10426  0.40592  1.0000
  H   H1254     1.0  0.32936  0.46704  0.36495  1.0000
  C   C709      1.0  0.50045  0.24575  0.53207  1.0000
  C   C710      1.0  0.26699  0.23066  0.49879  1.0000
  H   H1255     1.0  0.48324  0.31418  0.62479  1.0000
  H   H1256     1.0  0.39596  0.37318  0.44229  1.0000
  C   C711      1.0  0.39619  0.36371  0.36174  1.0000
  H   H1257     1.0  0.48274  0.19405  0.47125  1.0000
  C   C712      1.0  0.39828  0.13237  0.41102  1.0000
  N   N40       1.0  0.34604  0.46727  0.40682  1.0000
  C   C713      1.0  0.47003  0.30286  0.62371  1.0000
  C   C714      1.0  0.38054  0.38608  0.35881  1.0000
  C   C715      1.0  0.27584  0.45719  0.39378  1.0000
  H   H1258     1.0  0.30920  0.03450  0.35528  1.0000
  H   H1259     1.0  0.41412  0.98347  0.41238  1.0000
  H   H1260     1.0  0.50772  0.26494  0.53304  1.0000
  H   H1261     1.0  0.31655  0.43589  0.39002  1.0000
  H   H1262     1.0  0.48158  0.34110  0.57867  1.0000
  H   H1263     1.0  0.26701  0.21828  0.51374  1.0000
  H   H1264     1.0  0.46467  0.23983  0.57492  1.0000
  H   H1265     1.0  0.46454  0.33729  0.54842  1.0000
  H   H1266     1.0  0.45381  0.33622  0.63882  1.0000
  C   C716      1.0  0.49178  0.14133  0.48266  1.0000
  H   H1267     1.0  0.34048  0.16392  0.37415  1.0000
  H   H1268     1.0  0.44540  0.33454  0.56732  1.0000
  H   H1269     1.0  0.47249  0.20323  0.60029  1.0000
  H   H1270     1.0  0.49269  0.26522  0.57262  1.0000
  H   H1271     1.0  0.47248  0.09162  0.51668  1.0000
  H   H1272     1.0  0.51141  0.10278  0.45910  1.0000
  C   C717      1.0  0.28398  0.42292  0.42026  1.0000
  H   H1273     1.0  0.44341  0.30256  0.64121  1.0000
  H   H1274     1.0  0.27488  0.12621  0.49144  1.0000
  H   H1275     1.0  0.32191  0.99764  0.39338  1.0000
  Fe  Fe79      1.0  0.28790  0.02458  0.42499  1.0000
  H   H1276     1.0  0.47544  0.12743  0.52263  1.0000
  C   C718      1.0  0.44019  0.31843  0.53644  1.0000
  C   C719      1.0  0.34108  0.46439  0.43016  1.0000
  C   C720      1.0  0.45348  0.32355  0.55464  1.0000
  C   C721      1.0  0.36443  0.99215  0.36745  1.0000
  H   H1277     1.0  0.39190  0.14313  0.42508  1.0000
  H   H1278     1.0  0.42935  0.18293  0.39514  1.0000
  H   H1279     1.0  0.42483  0.40261  0.39320  1.0000
  C   C722      1.0  0.48364  0.27098  0.58647  1.0000
  C   C723      1.0  0.29657  0.28832  0.44863  1.0000
  C   C724      1.0  0.39853  0.18041  0.39709  1.0000
  H   H1280     1.0  0.49499  0.22434  0.44233  1.0000
  C   C725      1.0  0.47071  0.24612  0.59024  1.0000
  C   C726      1.0  0.48164  0.22139  0.59919  1.0000
  C   C727      1.0  0.28135  0.40163  0.40553  1.0000
  C   C728      1.0  0.49803  0.19753  0.47011  1.0000
  H   H1281     1.0  0.43426  0.33838  0.53060  1.0000
  H   H1282     1.0  0.47041  0.28633  0.54985  1.0000
  H   H1283     1.0  0.36029  0.16943  0.40560  1.0000
  C   C729      1.0  0.46218  0.29611  0.56311  1.0000
  N   N41       1.0  0.47388  0.29837  0.58267  1.0000
  H   H1284     1.0  0.49382  0.21598  0.58872  1.0000
  H   H1285     1.0  0.45906  0.25092  0.60157  1.0000
  Fe  Fe80      1.0  0.27530  0.06904  0.45827  1.0000
  C   C730      1.0  0.33230  0.00092  0.38037  1.0000
  C   C731      1.0  0.32979  0.39632  0.38531  1.0000
  H   H1286     1.0  0.41672  0.23071  0.39289  1.0000
  H   H1287     1.0  0.43215  0.10039  0.44300  1.0000
  H   H1288     1.0  0.32982  0.18465  0.48436  1.0000
  H   H1289     1.0  0.39517  0.19392  0.38324  1.0000
  C   C732      1.0  0.37787  0.14675  0.38188  1.0000
  H   H1290     1.0  0.48866  0.09626  0.48252  1.0000
  C   C733      1.0  0.32794  0.42351  0.39738  1.0000
  C   C734      1.0  0.34666  0.43901  0.39696  1.0000
  H   H1291     1.0  0.33098  0.99531  0.34559  1.0000
  H   H1292     1.0  0.39116  0.99580  0.38352  1.0000
  H   H1293     1.0  0.34540  0.46945  0.47405  1.0000
  C   C735      1.0  0.32188  0.99355  0.35997  1.0000
  C   C736      1.0  0.49048  0.11302  0.49417  1.0000
  H   H1294     1.0  0.44513  0.28741  0.35855  1.0000
  H   H1295     1.0  0.45611  0.31225  0.37501  1.0000
  H   H1296     1.0  0.33289  0.00977  0.42412  1.0000
  C   C737      1.0  0.42422  0.41312  0.35987  1.0000
  H   H1297     1.0  0.39800  0.15644  0.34537  1.0000
  S   S164      1.0  0.50655  0.16431  0.62061  1.0000
  H   H1298     1.0  0.37536  0.16214  0.36899  1.0000
  H   H1299     1.0  0.41826  0.31951  0.35293  1.0000
  H   H1300     1.0  0.26990  0.19789  0.43342  1.0000
  C   C738      1.0  0.50950  0.12368  0.45198  1.0000
  H   H1301     1.0  0.27360  0.47852  0.38915  1.0000
  C   C739      1.0  0.26345  0.12596  0.50292  1.0000
  C   C740      1.0  0.27293  0.19072  0.41749  1.0000
  S   S165      1.0  0.27580  0.11746  0.38628  1.0000
  H   H1302     1.0  0.41832  0.40533  0.34497  1.0000
  H   H1303     1.0  0.50323  0.19964  0.48640  1.0000
  H   H1304     1.0  0.40284  0.36115  0.34568  1.0000
  C   C741      1.0  0.50800  0.17349  0.45792  1.0000
  H   H1305     1.0  0.35794  0.35896  0.35079  1.0000
  H   H1306     1.0  0.43512  0.36298  0.35695  1.0000
  H   H1307     1.0  0.50940  0.10827  0.40880  1.0000
  H   H1308     1.0  0.49327  0.24159  0.46758  1.0000
  H   H1309     1.0  0.50633  0.36040  0.55487  1.0000
  N   N42       1.0  0.50907  0.14562  0.46895  1.0000
  C   C742      1.0  0.50628  0.22299  0.54456  1.0000
  C   C743      1.0  0.50226  0.31657  0.56080  1.0000
  H   H1310     1.0  0.27034  0.14775  0.42596  1.0000
  H   H1311     1.0  0.26836  0.44105  0.36329  1.0000
  C   C744      1.0  0.50074  0.22498  0.45859  1.0000
  H   H1312     1.0  0.50027  0.17209  0.44276  1.0000
  C   C745      1.0  0.35392  0.99736  0.44595  1.0000
  H   H1313     1.0  0.34358  0.99705  0.45937  1.0000
  C   C746      1.0  0.39956  0.48117  0.41154  1.0000
  C   C747      1.0  0.39706  0.98343  0.35145  1.0000
  C   C748      1.0  0.38481  0.98224  0.37160  1.0000
  H   H1314     1.0  0.36033  0.98428  0.35177  1.0000
  H   H1315     1.0  0.51226  0.01528  0.61758  1.0000
  H   H1316     1.0  0.26644  0.19591  0.47807  1.0000
  S   S166      1.0  0.26343  0.30065  0.35923  1.0000
  H   H1317     1.0  0.31709  0.47976  0.40181  1.0000
  C   C749      1.0  0.36490  0.48013  0.40355  1.0000
  H   H1318     1.0  0.32162  0.47950  0.46746  1.0000
  S   S167      1.0  0.26302  0.05437  0.42759  1.0000
  H   H1319     1.0  0.36859  0.48152  0.38633  1.0000
  Fe  Fe81      1.0  0.46778  0.02267  0.96339  1.0000
  S   S168      1.0  0.48408  0.03211  0.93324  1.0000
  H   H1320     1.0  0.44606  0.40956  0.83241  1.0000
  Fe  Fe82      1.0  0.43019  0.03683  0.94147  1.0000
  S   S169      1.0  0.44431  0.04743  0.91060  1.0000
  S   S170      1.0  0.39885  0.04418  0.94435  1.0000
  Fe  Fe83      1.0  0.46146  0.00885  0.91707  1.0000
  H   H1321     1.0  0.42824  0.38503  0.97216  1.0000
  Fe  Fe84      1.0  0.46508  0.06961  0.92985  1.0000
  S   S171      1.0  0.47382  0.11450  0.92822  1.0000
  S   S172      1.0  0.44623  0.99703  0.94729  1.0000
  S   S173      1.0  0.44988  0.06124  0.96064  1.0000
  Fe  Fe85      1.0  0.46251  0.25034  0.85423  1.0000
  S   S174      1.0  0.44801  0.26731  0.82535  1.0000
  S   S175      1.0  0.46200  0.20326  0.85413  1.0000
  Fe  Fe86      1.0  0.47097  0.30932  0.86885  1.0000
  S   S176      1.0  0.45731  0.32931  0.84067  1.0000
  S   S177      1.0  0.48354  0.33614  0.89406  1.0000
  Fe  Fe87      1.0  0.43482  0.29851  0.84768  1.0000
  S   S178      1.0  0.40386  0.31053  0.84790  1.0000
  Fe  Fe88      1.0  0.47202  0.29610  0.82145  1.0000
  S   S179      1.0  0.49019  0.29766  0.79110  1.0000
  S   S180      1.0  0.44791  0.27996  0.87667  1.0000
  S   S181      1.0  0.48724  0.27772  0.84933  1.0000
  H   H1322     1.0  0.47494  0.32271  0.72521  1.0000
  S   S182      1.0  0.28745  0.37433  0.88875  1.0000
  Fe  Fe89      1.0  0.32412  0.06341  0.85714  1.0000
  S   S183      1.0  0.30576  0.07838  0.88413  1.0000
  S   S184      1.0  0.35563  0.05812  0.85770  1.0000
  Fe  Fe90      1.0  0.29092  0.05454  0.82719  1.0000
  Fe  Fe91      1.0  0.29030  0.10299  0.85929  1.0000
  Fe  Fe92      1.0  0.28731  0.04350  0.87486  1.0000
  H   H1323     1.0  0.44475  0.42142  0.95510  1.0000
  S   S185      1.0  0.31003  0.08999  0.83265  1.0000
  S   S186      1.0  0.30690  0.02690  0.84959  1.0000
  Fe  Fe93      1.0  0.32676  0.31900  0.93643  1.0000
  S   S187      1.0  0.31022  0.30742  0.90827  1.0000
  S   S188      1.0  0.35824  0.31362  0.93568  1.0000
  Fe  Fe94      1.0  0.29149  0.33341  0.96399  1.0000
  Fe  Fe95      1.0  0.29134  0.28556  0.93138  1.0000
  Fe  Fe96      1.0  0.29339  0.34587  0.91654  1.0000
  H   H1324     1.0  0.50739  0.46028  0.86289  1.0000
  S   S189      1.0  0.30914  0.29475  0.95931  1.0000
  S   S190      1.0  0.31111  0.35875  0.94368  1.0000
  C   C750      1.0  0.40635  0.41407  0.94371  1.0000
  C   C751      1.0  0.28693  0.16723  0.90087  1.0000
  C   C752      1.0  0.28656  0.18792  0.91655  1.0000
  H   H1325     1.0  0.28814  0.14573  0.90541  1.0000
  C   C753      1.0  0.26840  0.01989  0.75868  1.0000
  C   C754      1.0  0.28428  0.41011  0.89263  1.0000
  H   H1326     1.0  0.42933  0.12364  0.85916  1.0000
  H   H1327     1.0  0.27199  0.04711  0.69209  1.0000
  H   H1328     1.0  0.47883  0.19109  0.67243  1.0000
  S   S191      1.0  0.48413  0.01957  0.99434  1.0000
  H   H1329     1.0  0.48015  0.41443  0.70164  1.0000
  C   C755      1.0  0.28461  0.21600  0.91101  1.0000
  S   S192      1.0  0.28311  0.14925  0.85917  1.0000
  C   C756      1.0  0.39096  0.30996  0.87223  1.0000
  C   C757      1.0  0.37238  0.31996  0.87282  1.0000
  C   C758      1.0  0.36189  0.32013  0.89202  1.0000
  C   C759      1.0  0.37008  0.31092  0.91088  1.0000
  C   C760      1.0  0.38852  0.30059  0.91024  1.0000
  C   C761      1.0  0.39885  0.29998  0.89102  1.0000
  H   H1330     1.0  0.36610  0.32770  0.85839  1.0000
  H   H1331     1.0  0.34765  0.32807  0.89231  1.0000
  H   H1332     1.0  0.39496  0.29334  0.92473  1.0000
  H   H1333     1.0  0.41298  0.29211  0.89094  1.0000
  C   C762      1.0  0.49509  0.32525  0.77340  1.0000
  C   C763      1.0  0.49874  0.09712  0.99780  1.0000
  H   H1334     1.0  0.40313  0.43962  0.85358  1.0000
  H   H1335     1.0  0.43027  0.14304  0.93322  1.0000
  C   C764      1.0  0.32222  0.02555  0.93396  1.0000
  C   C765      1.0  0.48338  0.34861  0.77198  1.0000
  H   H1336     1.0  0.49427  0.23157  0.80162  1.0000
  C   C766      1.0  0.40003  0.36491  0.94984  1.0000
  H   H1337     1.0  0.47087  0.35013  0.78191  1.0000
  C   C767      1.0  0.38697  0.04861  0.92020  1.0000
  C   C768      1.0  0.39481  0.03880  0.90109  1.0000
  C   C769      1.0  0.38518  0.04239  0.88202  1.0000
  C   C770      1.0  0.36746  0.05531  0.88191  1.0000
  C   C771      1.0  0.35961  0.06539  0.90097  1.0000
  C   C772      1.0  0.36933  0.06192  0.92009  1.0000
  H   H1338     1.0  0.40819  0.02805  0.90101  1.0000
  H   H1339     1.0  0.39135  0.03460  0.86733  1.0000
  H   H1340     1.0  0.34599  0.07554  0.90102  1.0000
  H   H1341     1.0  0.36317  0.06956  0.93482  1.0000
  C   C773      1.0  0.47632  0.37120  0.89525  1.0000
  C   C774      1.0  0.48604  0.38977  0.90776  1.0000
  C   C775      1.0  0.48117  0.41814  0.90764  1.0000
  C   C776      1.0  0.46677  0.42800  0.89470  1.0000
  C   C777      1.0  0.45686  0.40934  0.88266  1.0000
  C   C778      1.0  0.46132  0.38104  0.88332  1.0000
  H   H1342     1.0  0.49757  0.38229  0.91724  1.0000
  H   H1343     1.0  0.48895  0.43242  0.91695  1.0000
  C   C779      1.0  0.48556  0.21651  0.79332  1.0000
  C   C780      1.0  0.50282  0.10115  0.97362  1.0000
  C   C781      1.0  0.47064  0.13885  0.90739  1.0000
  C   C782      1.0  0.46732  0.13077  0.88656  1.0000
  C   C783      1.0  0.46487  0.15080  0.87047  1.0000
  C   C784      1.0  0.46582  0.17909  0.87497  1.0000
  C   C785      1.0  0.46944  0.18717  0.89574  1.0000
  C   C786      1.0  0.47188  0.16711  0.91185  1.0000
  H   H1344     1.0  0.46688  0.10910  0.88282  1.0000
  H   H1345     1.0  0.46235  0.14435  0.85437  1.0000
  N   N43       1.0  0.35050  0.23359  0.86187  1.0000
  C   C787      1.0  0.34241  0.22556  0.88335  1.0000
  C   C788      1.0  0.34610  0.21225  0.84533  1.0000
  C   C789      1.0  0.37152  0.23406  0.86382  1.0000
  C   C790      1.0  0.34392  0.26197  0.85496  1.0000
  C   C791      1.0  0.32255  0.26740  0.85434  1.0000
  C   C792      1.0  0.34682  0.24488  0.90209  1.0000
  C   C793      1.0  0.38285  0.23932  0.84290  1.0000
  C   C794      1.0  0.32717  0.19745  0.84751  1.0000
  C   C795      1.0  0.32398  0.17947  0.82810  1.0000
  C   C796      1.0  0.31810  0.29781  0.84962  1.0000
  C   C797      1.0  0.33658  0.23614  0.92247  1.0000
  C   C798      1.0  0.40378  0.23477  0.84626  1.0000
  H   H1346     1.0  0.34753  0.20446  0.88776  1.0000
  H   H1347     1.0  0.32696  0.22408  0.88293  1.0000
  H   H1348     1.0  0.34687  0.22155  0.82909  1.0000
  H   H1349     1.0  0.35684  0.19520  0.84531  1.0000
  H   H1350     1.0  0.37669  0.21422  0.87077  1.0000
  H   H1351     1.0  0.37570  0.25054  0.87485  1.0000
  H   H1352     1.0  0.34987  0.27778  0.86531  1.0000
  H   H1353     1.0  0.34945  0.26684  0.83874  1.0000
  H   H1354     1.0  0.31554  0.26227  0.86968  1.0000
  H   H1355     1.0  0.31644  0.25541  0.84140  1.0000
  H   H1356     1.0  0.36196  0.24430  0.90556  1.0000
  H   H1357     1.0  0.34242  0.26645  0.89860  1.0000
  H   H1358     1.0  0.38061  0.26094  0.83742  1.0000
  H   H1359     1.0  0.37889  0.22541  0.82993  1.0000
  H   H1360     1.0  0.32699  0.18376  0.86176  1.0000
  H   H1361     1.0  0.31526  0.21218  0.84908  1.0000
  H   H1362     1.0  0.33501  0.16304  0.82672  1.0000
  H   H1363     1.0  0.31026  0.16943  0.82971  1.0000
  H   H1364     1.0  0.32387  0.19213  0.81332  1.0000
  H   H1365     1.0  0.32397  0.31119  0.86196  1.0000
  H   H1366     1.0  0.32394  0.30384  0.83381  1.0000
  C   C799      1.0  0.27829  0.46742  0.89747  1.0000
  H   H1367     1.0  0.34053  0.21462  0.92694  1.0000
  H   H1368     1.0  0.34025  0.25002  0.93565  1.0000
  H   H1369     1.0  0.32126  0.23774  0.92036  1.0000
  H   H1370     1.0  0.40696  0.21294  0.85057  1.0000
  H   H1371     1.0  0.41154  0.23960  0.83129  1.0000
  H   H1372     1.0  0.40875  0.24848  0.85894  1.0000
  C   C800      1.0  0.48794  0.37014  0.75779  1.0000
  H   H1373     1.0  0.46106  0.42925  0.71692  1.0000
  C   C801      1.0  0.48100  0.26665  0.73481  1.0000
  H   H1374     1.0  0.47466  0.17356  0.92788  1.0000
  S   S193      1.0  0.27698  0.01403  0.90043  1.0000
  H   H1375     1.0  0.48807  0.37853  0.80604  1.0000
  C   C802      1.0  0.28204  0.42136  0.91296  1.0000
  H   H1376     1.0  0.35101  0.99176  0.92801  1.0000
  H   H1377     1.0  0.45286  0.30519  0.72591  1.0000
  C   C803      1.0  0.47999  0.22771  0.77151  1.0000
  H   H1378     1.0  0.45424  0.38541  0.81251  1.0000
  H   H1379     1.0  0.34297  0.99510  0.87018  1.0000
  C   C804      1.0  0.45740  0.40503  0.82054  1.0000
  H   H1380     1.0  0.27685  0.45848  0.93108  1.0000
  H   H1381     1.0  0.46718  0.26174  0.74209  1.0000
  H   H1382     1.0  0.48698  0.28256  0.74515  1.0000
  H   H1383     1.0  0.47848  0.17260  0.69735  1.0000
  H   H1384     1.0  0.40421  0.18128  0.92030  1.0000
  H   H1385     1.0  0.34093  0.14915  0.89519  1.0000
  H   H1386     1.0  0.27054  0.07134  0.67035  1.0000
  H   H1387     1.0  0.39150  0.38892  0.97836  1.0000
  H   H1388     1.0  0.28432  0.38963  0.71710  1.0000
  C   C805      1.0  0.31684  0.45093  0.82342  1.0000
  C   C806      1.0  0.40508  0.46458  0.93251  1.0000
  H   H1389     1.0  0.38301  0.46812  0.89141  1.0000
  C   C807      1.0  0.47567  0.19298  0.68974  1.0000
  C   C808      1.0  0.28369  0.42762  0.87479  1.0000
  H   H1390     1.0  0.37329  0.98510  0.88301  1.0000
  H   H1391     1.0  0.45475  0.45985  0.68249  1.0000
  N   N44       1.0  0.51129  0.39010  0.82485  1.0000
  H   H1392     1.0  0.42528  0.20983  0.88349  1.0000
  H   H1393     1.0  0.38684  0.36743  0.94086  1.0000
  H   H1394     1.0  0.28357  0.07989  0.69355  1.0000
  H   H1395     1.0  0.42906  0.43779  0.92781  1.0000
  C   C809      1.0  0.43160  0.38111  0.95511  1.0000
  H   H1396     1.0  0.39445  0.18820  0.89450  1.0000
  H   H1397     1.0  0.43893  0.41550  0.68886  1.0000
  N   N45       1.0  0.34700  0.45380  0.87474  1.0000
  C   C810      1.0  0.41369  0.43610  0.92768  1.0000
  H   H1398     1.0  0.47032  0.20886  0.89939  1.0000
  C   C811      1.0  0.34360  0.42464  0.88236  1.0000
  C   C812      1.0  0.34890  0.41737  0.90562  1.0000
  C   C813      1.0  0.48466  0.21763  0.72353  1.0000
  H   H1399     1.0  0.47903  0.38845  0.75716  1.0000
  C   C814      1.0  0.34906  0.38625  0.90932  1.0000
  H   H1400     1.0  0.36723  0.12602  0.91341  1.0000
  C   C815      1.0  0.39440  0.36719  0.97376  1.0000
  C   C816      1.0  0.27171  0.32246  0.75529  1.0000
  H   H1401     1.0  0.45340  0.36693  0.87414  1.0000
  H   H1402     1.0  0.32849  0.41968  0.88128  1.0000
  H   H1403     1.0  0.35094  0.40960  0.87159  1.0000
  H   H1404     1.0  0.33850  0.42664  0.91695  1.0000
  H   H1405     1.0  0.36277  0.42492  0.90988  1.0000
  H   H1406     1.0  0.41806  0.16020  0.87640  1.0000
  H   H1407     1.0  0.31799  0.45897  0.90411  1.0000
  H   H1408     1.0  0.33282  0.42142  0.84160  1.0000
  H   H1409     1.0  0.31836  0.45985  0.86484  1.0000
  H   H1410     1.0  0.38370  0.43153  0.88543  1.0000
  H   H1411     1.0  0.43131  0.15517  0.89937  1.0000
  H   H1412     1.0  0.35199  0.38143  0.92624  1.0000
  H   H1413     1.0  0.33531  0.37762  0.90540  1.0000
  H   H1414     1.0  0.36012  0.37621  0.89925  1.0000
  H   H1415     1.0  0.26874  0.08735  0.76250  1.0000
  H   H1416     1.0  0.37243  0.16108  0.90675  1.0000
  H   H1417     1.0  0.46302  0.39041  0.97921  1.0000
  N   N46       1.0  0.41443  0.38503  0.94173  1.0000
  C   C817      1.0  0.41940  0.37733  0.91907  1.0000
  N   N47       1.0  0.47923  0.47570  0.69779  1.0000
  C   C818      1.0  0.40260  0.37565  0.90397  1.0000
  C   C819      1.0  0.44820  0.40003  0.94994  1.0000
  C   C820      1.0  0.46572  0.39065  0.96175  1.0000
  C   C821      1.0  0.40884  0.37581  0.88062  1.0000
  H   H1418     1.0  0.42686  0.35686  0.91854  1.0000
  H   H1419     1.0  0.42947  0.39183  0.91191  1.0000
  H   H1420     1.0  0.43674  0.35923  0.95416  1.0000
  H   H1421     1.0  0.40497  0.34322  0.94694  1.0000
  H   H1422     1.0  0.40992  0.43102  0.91124  1.0000
  H   H1423     1.0  0.39514  0.35625  0.90699  1.0000
  H   H1424     1.0  0.39244  0.39287  0.90665  1.0000
  H   H1425     1.0  0.45185  0.40007  0.93282  1.0000
  C   C822      1.0  0.27743  0.45304  0.78016  1.0000
  H   H1426     1.0  0.47718  0.40517  0.95823  1.0000
  H   H1427     1.0  0.47043  0.36976  0.95647  1.0000
  H   H1428     1.0  0.39653  0.37345  0.87039  1.0000
  H   H1429     1.0  0.41557  0.39552  0.87640  1.0000
  H   H1430     1.0  0.41882  0.35836  0.87736  1.0000
  C   C823      1.0  0.27308  0.40162  0.70908  1.0000
  H   H1431     1.0  0.40856  0.42202  0.96002  1.0000
  H   H1432     1.0  0.40179  0.47643  0.85789  1.0000
  H   H1433     1.0  0.40575  0.35858  0.98380  1.0000
  H   H1434     1.0  0.38963  0.46446  0.93127  1.0000
  H   H1435     1.0  0.28148  0.24467  0.88502  1.0000
  C   C824      1.0  0.34479  0.99518  0.91210  1.0000
  H   H1436     1.0  0.35574  0.15603  0.87229  1.0000
  H   H1437     1.0  0.27180  0.30313  0.74591  1.0000
  H   H1438     1.0  0.34625  0.44757  0.82809  1.0000
  H   H1439     1.0  0.40885  0.13851  0.96477  1.0000
  H   H1440     1.0  0.44579  0.41690  0.87258  1.0000
  H   H1441     1.0  0.28626  0.32647  0.76004  1.0000
  C   C825      1.0  0.49227  0.39622  0.81578  1.0000
  H   H1442     1.0  0.35201  0.01306  0.90502  1.0000
  H   H1443     1.0  0.49260  0.41445  0.80501  1.0000
  H   H1444     1.0  0.33022  0.04422  0.92982  1.0000
  H   H1445     1.0  0.36807  0.44037  0.85155  1.0000
  H   H1446     1.0  0.26726  0.27743  0.98761  1.0000
  C   C826      1.0  0.50391  0.36814  0.74442  1.0000
  H   H1447     1.0  0.40769  0.10588  0.85689  1.0000
  C   C827      1.0  0.47647  0.28057  0.71324  1.0000
  H   H1448     1.0  0.26756  0.10849  0.79740  1.0000
  C   C828      1.0  0.46605  0.30815  0.71662  1.0000
  H   H1449     1.0  0.45227  0.38652  0.69916  1.0000
  C   C829      1.0  0.28330  0.22322  0.88951  1.0000
  H   H1450     1.0  0.48978  0.46088  0.98738  1.0000
  H   H1451     1.0  0.30270  0.30136  0.84960  1.0000
  H   H1452     1.0  0.48795  0.45094  0.72501  1.0000
  H   H1453     1.0  0.27285  0.34753  0.72717  1.0000
  H   H1454     1.0  0.46256  0.31749  0.70098  1.0000
  H   H1455     1.0  0.35040  0.12098  0.87955  1.0000
  C   C830      1.0  0.28476  0.17439  0.87946  1.0000
  H   H1456     1.0  0.45843  0.40081  0.67351  1.0000
  C   C831      1.0  0.38323  0.45255  0.87859  1.0000
  S   S194      1.0  0.28187  0.24093  0.93151  1.0000
  H   H1457     1.0  0.43267  0.20519  0.91056  1.0000
  H   H1458     1.0  0.47488  0.38588  0.84369  1.0000
  H   H1459     1.0  0.47166  0.24695  0.77443  1.0000
  H   H1460     1.0  0.49839  0.41146  0.86454  1.0000
  H   H1461     1.0  0.43129  0.10601  0.93071  1.0000
  H   H1462     1.0  0.41007  0.10131  0.96207  1.0000
  H   H1463     1.0  0.42417  0.06096  0.86296  1.0000
  H   H1464     1.0  0.28525  0.41897  0.85904  1.0000
  H   H1465     1.0  0.41271  0.22714  0.90486  1.0000
  H   H1466     1.0  0.51068  0.25375  0.70698  1.0000
  H   H1467     1.0  0.44600  0.46778  0.72489  1.0000
  H   H1468     1.0  0.37936  0.32862  0.97517  1.0000
  H   H1469     1.0  0.39089  0.41417  0.94191  1.0000
  H   H1470     1.0  0.28250  0.40800  0.92679  1.0000
  S   S195      1.0  0.26997  0.06924  0.85215  1.0000
  S   S196      1.0  0.28659  0.04149  0.79262  1.0000
  C   C832      1.0  0.33335  0.44372  0.83765  1.0000
  H   H1471     1.0  0.43075  0.12001  0.96806  1.0000
  C   C833      1.0  0.36608  0.45613  0.86419  1.0000
  H   H1472     1.0  0.43378  0.07951  0.84052  1.0000
  C   C834      1.0  0.27880  0.44992  0.91535  1.0000
  H   H1473     1.0  0.44605  0.07851  0.86522  1.0000
  N   N48       1.0  0.40673  0.13010  0.89845  1.0000
  C   C835      1.0  0.40416  0.12494  0.92203  1.0000
  C   C836      1.0  0.38807  0.12967  0.88746  1.0000
  C   C837      1.0  0.41877  0.10669  0.88963  1.0000
  C   C838      1.0  0.41667  0.15664  0.89384  1.0000
  C   C839      1.0  0.40746  0.18323  0.90307  1.0000
  C   C840      1.0  0.42222  0.12392  0.93529  1.0000
  C   C841      1.0  0.42129  0.10576  0.86503  1.0000
  C   C842      1.0  0.37049  0.14036  0.90005  1.0000
  C   C843      1.0  0.35339  0.14173  0.88586  1.0000
  C   C844      1.0  0.42032  0.20779  0.90026  1.0000
  C   C845      1.0  0.41759  0.12077  0.95899  1.0000
  C   C846      1.0  0.43199  0.07957  0.85810  1.0000
  H   H1474     1.0  0.39703  0.10500  0.92472  1.0000
  H   H1475     1.0  0.39472  0.14069  0.92948  1.0000
  H   H1476     1.0  0.38887  0.14118  0.87209  1.0000
  H   H1477     1.0  0.38464  0.10813  0.88315  1.0000
  H   H1478     1.0  0.41300  0.08662  0.89489  1.0000
  H   H1479     1.0  0.43309  0.10716  0.89607  1.0000
  N   N49       1.0  0.49379  0.24142  0.73437  1.0000
  H   H1480     1.0  0.41062  0.47989  0.92092  1.0000
  H   H1481     1.0  0.31743  0.43764  0.80911  1.0000
  C   C847      1.0  0.33277  0.46145  0.85812  1.0000
  H   H1482     1.0  0.28661  0.39599  0.67814  1.0000
  C   C848      1.0  0.28085  0.45620  0.87719  1.0000
  H   H1483     1.0  0.47620  0.44569  0.67258  1.0000
  C   C849      1.0  0.37692  0.35076  0.97903  1.0000
  H   H1484     1.0  0.32730  0.01674  0.94918  1.0000
  S   S197      1.0  0.27259  0.32299  0.93705  1.0000
  H   H1485     1.0  0.48952  0.19755  0.73047  1.0000
  H   H1486     1.0  0.28106  0.20824  0.85745  1.0000
  C   C850      1.0  0.32415  0.00432  0.91618  1.0000
  H   H1487     1.0  0.26498  0.09414  0.72711  1.0000
  C   C851      1.0  0.47612  0.40254  0.83177  1.0000
  H   H1488     1.0  0.46879  0.09108  0.99555  1.0000
  S   S198      1.0  0.28089  0.33947  0.99845  1.0000
  H   H1489     1.0  0.35472  0.46987  0.90547  1.0000
  H   H1490     1.0  0.47282  0.21302  0.80330  1.0000
  C   C852      1.0  0.46886  0.45249  0.68753  1.0000
  H   H1491     1.0  0.45763  0.42203  0.80861  1.0000
  H   H1492     1.0  0.40872  0.47127  0.94872  1.0000
  H   H1493     1.0  0.28743  0.18209  0.93314  1.0000
  C   C853      1.0  0.27097  0.06940  0.68795  1.0000
  C   C854      1.0  0.40148  0.45594  0.86582  1.0000
  H   H1494     1.0  0.30335  0.44756  0.83198  1.0000
  H   H1495     1.0  0.46724  0.26727  0.70402  1.0000
  H   H1496     1.0  0.47831  0.42248  0.83979  1.0000
  C   C855      1.0  0.46644  0.42545  0.70057  1.0000
  H   H1497     1.0  0.28024  0.46948  0.86332  1.0000
  C   C856      1.0  0.28303  0.20250  0.87391  1.0000
  H   H1498     1.0  0.41359  0.45432  0.87658  1.0000
  H   H1499     1.0  0.27572  0.45911  0.79710  1.0000
  H   H1500     1.0  0.47092  0.21244  0.76404  1.0000
  H   H1501     1.0  0.50136  0.36729  0.85270  1.0000
  C   C857      1.0  0.45317  0.40597  0.68978  1.0000
  H   H1502     1.0  0.49344  0.19660  0.79177  1.0000
  H   H1503     1.0  0.48920  0.28505  0.70372  1.0000
  H   H1504     1.0  0.31838  0.01417  0.90165  1.0000
  H   H1505     1.0  0.49132  0.09139  0.96489  1.0000
  C   C858      1.0  0.26762  0.02488  0.78071  1.0000
  H   H1506     1.0  0.30726  0.03179  0.93611  1.0000
  H   H1507     1.0  0.46065  0.19880  0.69192  1.0000
  H   H1508     1.0  0.46928  0.21843  0.72667  1.0000
  H   H1509     1.0  0.36721  0.47664  0.85613  1.0000
  H   H1510     1.0  0.28054  0.02616  0.74946  1.0000
  C   C859      1.0  0.49749  0.23346  0.75725  1.0000
  H   H1511     1.0  0.36479  0.35883  0.96992  1.0000
  H   H1512     1.0  0.37341  0.35240  0.99625  1.0000
  S   S199      1.0  0.46174  0.46344  0.89118  1.0000
  H   H1513     1.0  0.28428  0.99674  0.99316  1.0000
  S   S200      1.0  0.50967  0.39674  0.72810  1.0000
  H   H1514     1.0  0.26932  0.37066  0.68460  1.0000
  C   C860      1.0  0.49405  0.46434  0.71247  1.0000
  H   H1515     1.0  0.50546  0.24987  0.76517  1.0000
  H   H1516     1.0  0.27676  0.42376  0.70928  1.0000
  C   C861      1.0  0.27272  0.39282  0.68582  1.0000
  H   H1517     1.0  0.50401  0.45066  0.70345  1.0000
  H   H1518     1.0  0.50998  0.46119  0.75290  1.0000
  C   C862      1.0  0.51041  0.36422  0.83834  1.0000
  H   H1519     1.0  0.50274  0.20850  0.69558  1.0000
  H   H1520     1.0  0.38155  0.98883  0.92031  1.0000
  H   H1521     1.0  0.27946  0.98359  0.86080  1.0000
  H   H1522     1.0  0.50805  0.05087  0.96980  1.0000
  H   H1523     1.0  0.31559  0.98646  0.92078  1.0000
  H   H1524     1.0  0.50123  0.12365  0.97059  1.0000
  C   C863      1.0  0.48802  0.21488  0.69913  1.0000
  H   H1525     1.0  0.48526  0.23446  0.69053  1.0000
  H   H1526     1.0  0.50110  0.07543  0.00294  1.0000
  H   H1527     1.0  0.31738  0.47280  0.81811  1.0000
  C   C864      1.0  0.34506  0.47469  0.89234  1.0000
  H   H1528     1.0  0.27237  0.39774  0.98821  1.0000
  H   H1529     1.0  0.27856  0.42368  0.74572  1.0000
  C   C865      1.0  0.51091  0.32308  0.75981  1.0000
  C   C866      1.0  0.32509  0.47887  0.90196  1.0000
  H   H1530     1.0  0.29187  0.44473  0.77753  1.0000
  H   H1531     1.0  0.50357  0.34748  0.82949  1.0000
  H   H1532     1.0  0.46590  0.47558  0.74090  1.0000
  H   H1533     1.0  0.50648  0.21445  0.75799  1.0000
  H   H1534     1.0  0.47523  0.12669  0.99861  1.0000
  H   H1535     1.0  0.27932  0.37846  0.75610  1.0000
  H   H1536     1.0  0.27538  0.47178  0.77013  1.0000
  C   C867      1.0  0.26399  0.34632  0.74182  1.0000
  H   H1537     1.0  0.26614  0.41274  0.78468  1.0000
  H   H1538     1.0  0.33252  0.48011  0.93535  1.0000
  H   H1539     1.0  0.51030  0.08533  0.93410  1.0000
  H   H1540     1.0  0.50994  0.13749  0.93969  1.0000
  C   C868      1.0  0.26425  0.37400  0.75413  1.0000
  C   C869      1.0  0.26357  0.42461  0.75076  1.0000
  H   H1541     1.0  0.49976  0.47770  0.67228  1.0000
  H   H1542     1.0  0.51138  0.11791  0.90302  1.0000
  C   C870      1.0  0.51226  0.24888  0.72409  1.0000
  C   C871      1.0  0.26311  0.43134  0.77487  1.0000
  H   H1543     1.0  0.26281  0.31946  0.76976  1.0000
  H   H1544     1.0  0.27528  0.75350  0.10500  1.0000
  H   H1545     1.0  0.40613  0.64989  0.32870  1.0000
  C   C872      1.0  0.50791  0.94756  0.03451  1.0000
  S   S201      1.0  0.46614  0.57110  0.29764  1.0000
  Fe  Fe97      1.0  0.46139  0.55573  0.33186  1.0000
  H   H1546     1.0  0.45796  0.49975  0.22647  1.0000
  C   C873      1.0  0.49543  0.50612  0.21535  1.0000
  H   H1547     1.0  0.29955  0.86744  0.28063  1.0000
  H   H1548     1.0  0.42634  0.97102  0.21195  1.0000
  C   C874      1.0  0.49823  0.50058  0.03024  1.0000
  C   C875      1.0  0.48555  0.58857  0.28640  1.0000
  C   C876      1.0  0.48387  0.60062  0.26608  1.0000
  C   C877      1.0  0.49913  0.61356  0.25596  1.0000
  H   H1549     1.0  0.50400  0.60031  0.17915  1.0000
  Fe  Fe98      1.0  0.27998  0.78661  0.32600  1.0000
  C   C878      1.0  0.49559  0.65670  0.05841  1.0000
  H   H1550     1.0  0.47061  0.60002  0.25817  1.0000
  H   H1551     1.0  0.44145  0.52867  0.26634  1.0000
  C   C879      1.0  0.44305  0.51105  0.25518  1.0000
  C   C880      1.0  0.49253  0.49391  0.00963  1.0000
  H   H1552     1.0  0.47063  0.72347  0.31165  1.0000
  H   H1553     1.0  0.27276  0.86581  0.25549  1.0000
  H   H1554     1.0  0.30680  0.83384  0.02324  1.0000
  H   H1555     1.0  0.47351  0.54968  0.20737  1.0000
  H   H1556     1.0  0.28087  0.79458  0.08066  1.0000
  H   H1557     1.0  0.51167  0.70976  0.11217  1.0000
  C   C881      1.0  0.27443  0.84956  0.26782  1.0000
  C   C882      1.0  0.50261  0.59003  0.29671  1.0000
  C   C883      1.0  0.48566  0.95982  0.09765  1.0000
  H   H1558     1.0  0.50059  0.66427  0.04262  1.0000
  H   H1559     1.0  0.47430  0.54241  0.25698  1.0000
  H   H1560     1.0  0.27331  0.79522  0.02667  1.0000
  S   S202      1.0  0.27314  0.78134  0.29068  1.0000
  H   H1561     1.0  0.26731  0.84641  0.03785  1.0000
  H   H1562     1.0  0.27497  0.61188  0.00354  1.0000
  H   H1563     1.0  0.26885  0.50748  0.07137  1.0000
  C   C884      1.0  0.26394  0.59618  0.00472  1.0000
  H   H1564     1.0  0.49707  0.52176  0.03546  1.0000
  H   H1565     1.0  0.48722  0.94105  0.12921  1.0000
  C   C885      1.0  0.50425  0.68957  0.14144  1.0000
  H   H1566     1.0  0.50659  0.64143  0.08799  1.0000
  H   H1567     1.0  0.27501  0.88883  0.10238  1.0000
  H   H1568     1.0  0.29794  0.83052  0.28436  1.0000
  H   H1569     1.0  0.30368  0.84436  0.25855  1.0000
  H   H1570     1.0  0.50800  0.98134  0.25072  1.0000
  C   C886      1.0  0.51211  0.64929  0.07254  1.0000
  C   C887      1.0  0.51037  0.68836  0.11803  1.0000
  H   H1571     1.0  0.47771  0.95602  0.08306  1.0000
  H   H1572     1.0  0.26687  0.87547  0.29488  1.0000
  H   H1573     1.0  0.26737  0.77788  0.06163  1.0000
  C   C888      1.0  0.40204  0.60769  0.32041  1.0000
  S   S203      1.0  0.29875  0.82245  0.33176  1.0000
  H   H1574     1.0  0.49891  0.67891  0.10922  1.0000
  H   H1575     1.0  0.26630  0.87966  0.06467  1.0000
  H   H1576     1.0  0.40130  0.58699  0.32801  1.0000
  H   H1577     1.0  0.41416  0.60743  0.30907  1.0000
  H   H1578     1.0  0.28604  0.84181  0.05566  1.0000
  C   C889      1.0  0.26645  0.79357  0.07435  1.0000
  C   C890      1.0  0.48648  0.96450  0.00709  1.0000
  H   H1579     1.0  0.49036  0.60898  0.20262  1.0000
  H   H1580     1.0  0.45105  0.53574  0.22845  1.0000
  C   C891      1.0  0.29515  0.84796  0.27326  1.0000
  C   C892      1.0  0.48444  0.67131  0.31125  1.0000
  H   H1581     1.0  0.26523  0.58531  0.02024  1.0000
  H   H1582     1.0  0.48008  0.50685  0.25699  1.0000
  H   H1583     1.0  0.50914  0.48549  0.06014  1.0000
  H   H1584     1.0  0.46458  0.64775  0.33110  1.0000
  H   H1585     1.0  0.43013  0.96603  0.23995  1.0000
  H   H1586     1.0  0.48723  0.92293  0.01970  1.0000
  H   H1587     1.0  0.27494  0.84036  0.09153  1.0000
  H   H1588     1.0  0.49759  0.62288  0.24041  1.0000
  H   H1589     1.0  0.48034  0.58879  0.18176  1.0000
  C   C893      1.0  0.49328  0.59268  0.19061  1.0000
  C   C894      1.0  0.49338  0.94306  0.02029  1.0000
  H   H1590     1.0  0.43861  0.64871  0.30617  1.0000
  H   H1591     1.0  0.26531  0.77951  0.24614  1.0000
  H   H1592     1.0  0.28949  0.96268  0.00336  1.0000
  C   C895      1.0  0.50959  0.53715  0.24163  1.0000
  H   H1593     1.0  0.46511  0.77059  0.32554  1.0000
  H   H1594     1.0  0.48646  0.67282  0.06602  1.0000
  H   H1595     1.0  0.38907  0.61187  0.31141  1.0000
  H   H1596     1.0  0.27083  0.82959  0.26073  1.0000
  H   H1597     1.0  0.48099  0.57180  0.22776  1.0000
  H   H1598     1.0  0.29316  0.79504  0.04372  1.0000
  C   C896      1.0  0.45699  0.51777  0.23722  1.0000
  H   H1599     1.0  0.50365  0.55113  0.18843  1.0000
  H   H1600     1.0  0.48355  0.68522  0.29714  1.0000
  H   H1601     1.0  0.50066  0.95512  0.09419  1.0000
  H   H1602     1.0  0.45948  0.63471  0.29361  1.0000
  H   H1603     1.0  0.49082  0.65177  0.30497  1.0000
  H   H1604     1.0  0.28691  0.83451  0.00598  1.0000
  H   H1605     1.0  0.30230  0.80473  0.00657  1.0000
  H   H1606     1.0  0.46390  0.94298  0.11847  1.0000
  H   H1607     1.0  0.50981  0.55968  0.24487  1.0000
  C   C897      1.0  0.47635  0.52431  0.24630  1.0000
  H   H1608     1.0  0.28663  0.50099  0.05115  1.0000
  C   C898      1.0  0.45289  0.65373  0.30035  1.0000
  C   C899      1.0  0.48020  0.73123  0.32375  1.0000
  C   C900      1.0  0.27418  0.83092  0.04848  1.0000
  N   N50       1.0  0.49672  0.68330  0.32793  1.0000
  C   C901      1.0  0.48574  0.55464  0.21715  1.0000
  C   C902      1.0  0.46429  0.66422  0.31876  1.0000
  H   H1609     1.0  0.51127  0.50082  0.26340  1.0000
  H   H1610     1.0  0.45172  0.66965  0.28764  1.0000
  H   H1611     1.0  0.50222  0.66847  0.14794  1.0000
  N   N51       1.0  0.49187  0.52995  0.23030  1.0000
  C   C903      1.0  0.28366  0.80843  0.03416  1.0000
  C   C904      1.0  0.50052  0.56621  0.20126  1.0000
  C   C905      1.0  0.29564  0.82127  0.01646  1.0000
  H   H1612     1.0  0.50412  0.58085  0.31233  1.0000
  H   H1613     1.0  0.48713  0.63813  0.05595  1.0000
  H   H1614     1.0  0.50285  0.53208  0.27568  1.0000
  H   H1615     1.0  0.49085  0.70146  0.14310  1.0000
  H   H1616     1.0  0.27189  0.92052  0.01964  1.0000
  C   C906      1.0  0.42612  0.98146  0.22761  1.0000
  H   H1617     1.0  0.26569  0.83984  0.29993  1.0000
  C   C907      1.0  0.27507  0.49161  0.06053  1.0000
  H   H1618     1.0  0.44780  0.49245  0.26416  1.0000
  H   H1619     1.0  0.45666  0.68247  0.32536  1.0000
  H   H1620     1.0  0.42916  0.50696  0.24844  1.0000
  H   H1621     1.0  0.48319  0.50327  0.20502  1.0000
  H   H1622     1.0  0.49209  0.74124  0.31544  1.0000
  H   H1623     1.0  0.50717  0.51069  0.20409  1.0000
  H   H1624     1.0  0.48079  0.91797  0.10839  1.0000
  C   C908      1.0  0.47895  0.93930  0.11453  1.0000
  H   H1625     1.0  0.45817  0.98015  0.04036  1.0000
  H   H1626     1.0  0.51134  0.70740  0.30413  1.0000
  H   H1627     1.0  0.26403  0.48507  0.04959  1.0000
  C   C909      1.0  0.46943  0.75351  0.33635  1.0000
  H   H1628     1.0  0.43188  0.62744  0.41952  1.0000
  Fe  Fe99      1.0  0.45455  0.76344  0.46634  1.0000
  S   S204      1.0  0.47499  0.77575  0.44048  1.0000
  S   S205      1.0  0.45984  0.74373  0.49892  1.0000
  Fe  Fe100     1.0  0.42056  0.78408  0.44031  1.0000
  S   S206      1.0  0.43855  0.79727  0.41271  1.0000
  S   S207      1.0  0.38926  0.79291  0.44167  1.0000
  Fe  Fe101     1.0  0.45421  0.75700  0.41848  1.0000
  S   S208      1.0  0.45964  0.72843  0.39050  1.0000
  Fe  Fe102     1.0  0.45727  0.81501  0.43706  1.0000
  S   S209      1.0  0.46638  0.85986  0.43938  1.0000
  S   S210      1.0  0.43474  0.74266  0.44444  1.0000
  S   S211      1.0  0.43837  0.80365  0.46457  1.0000
  H   H1629     1.0  0.41634  0.61422  0.43976  1.0000
  C   C910      1.0  0.27240  0.64946  0.39462  1.0000
  Fe  Fe103     1.0  0.42760  0.54311  0.36156  1.0000
  S   S212      1.0  0.44547  0.53126  0.38918  1.0000
  S   S213      1.0  0.39602  0.54215  0.36116  1.0000
  S   S214      1.0  0.48183  0.54441  0.35740  1.0000
  Fe  Fe104     1.0  0.46330  0.50813  0.36502  1.0000
  N   N52       1.0  0.39129  0.64580  0.37392  1.0000
  Fe  Fe105     1.0  0.46210  0.56844  0.37927  1.0000
  S   S215      1.0  0.47135  0.59938  0.40370  1.0000
  H   H1630     1.0  0.51000  0.59815  0.48524  1.0000
  S   S216      1.0  0.44283  0.58166  0.35337  1.0000
  Fe  Fe106     1.0  0.28473  0.52396  0.43447  1.0000
  S   S217      1.0  0.29892  0.53838  0.46391  1.0000
  C   C911      1.0  0.29485  0.92447  0.40598  1.0000
  Fe  Fe107     1.0  0.28012  0.58462  0.41917  1.0000
  S   S218      1.0  0.29440  0.60192  0.44734  1.0000
  H   H1631     1.0  0.39073  0.68556  0.35816  1.0000
  Fe  Fe108     1.0  0.31483  0.56644  0.44196  1.0000
  S   S219      1.0  0.34640  0.56969  0.44354  1.0000
  Fe  Fe109     1.0  0.27685  0.57220  0.46625  1.0000
  S   S220      1.0  0.30160  0.55086  0.41262  1.0000
  H   H1632     1.0  0.42083  0.85502  0.48484  1.0000
  S   S221      1.0  0.29651  0.80795  0.38274  1.0000
  H   H1633     1.0  0.37248  0.87313  0.42954  1.0000
  Fe  Fe110     1.0  0.27983  0.83340  0.35947  1.0000
  Fe  Fe111     1.0  0.27865  0.77240  0.37351  1.0000
  C   C912      1.0  0.33142  0.48578  0.39670  1.0000
  C   C913      1.0  0.39999  0.67322  0.36890  1.0000
  H   H1634     1.0  0.37549  0.89893  0.40988  1.0000
  C   C914      1.0  0.41351  0.96812  0.42556  1.0000
  H   H1635     1.0  0.42156  0.59414  0.41629  1.0000
  C   C915      1.0  0.49594  0.60851  0.48552  1.0000
  H   H1636     1.0  0.49648  0.69955  0.55549  1.0000
  H   H1637     1.0  0.47218  0.61032  0.46395  1.0000
  H   H1638     1.0  0.47851  0.82697  0.53494  1.0000
  S   S222      1.0  0.27048  0.74383  0.40084  1.0000
  C   C916      1.0  0.26275  0.63442  0.50822  1.0000
  H   H1639     1.0  0.31955  0.52878  0.36962  1.0000
  H   H1640     1.0  0.27880  0.52234  0.58719  1.0000
  C   C917      1.0  0.41908  0.61539  0.42234  1.0000
  H   H1641     1.0  0.41561  0.73159  0.39466  1.0000
  H   H1642     1.0  0.40158  0.89563  0.47414  1.0000
  C   C918      1.0  0.36018  0.56146  0.42068  1.0000
  C   C919      1.0  0.35201  0.55723  0.40100  1.0000
  C   C920      1.0  0.36317  0.55113  0.38296  1.0000
  C   C921      1.0  0.38266  0.54945  0.38434  1.0000
  C   C922      1.0  0.39096  0.55378  0.40393  1.0000
  C   C923      1.0  0.37973  0.55972  0.42206  1.0000
  H   H1643     1.0  0.33714  0.55943  0.39942  1.0000
  H   H1644     1.0  0.35666  0.54814  0.36780  1.0000
  H   H1645     1.0  0.40600  0.55233  0.40515  1.0000
  H   H1646     1.0  0.38622  0.56304  0.43719  1.0000
  C   C924      1.0  0.37765  0.79417  0.41724  1.0000
  C   C925      1.0  0.38631  0.78398  0.39872  1.0000
  C   C926      1.0  0.37646  0.78359  0.37964  1.0000
  C   C927      1.0  0.35787  0.79329  0.37894  1.0000
  C   C928      1.0  0.34941  0.80442  0.39731  1.0000
  C   C929      1.0  0.35926  0.80479  0.41643  1.0000
  H   H1647     1.0  0.40058  0.77624  0.39913  1.0000
  H   H1648     1.0  0.38320  0.77557  0.36536  1.0000
  H   H1649     1.0  0.33527  0.81266  0.39678  1.0000
  H   H1650     1.0  0.35257  0.81306  0.43066  1.0000
  C   C930      1.0  0.46092  0.69258  0.39544  1.0000
  C   C931      1.0  0.45545  0.67432  0.37965  1.0000
  C   C932      1.0  0.45829  0.64573  0.38211  1.0000
  C   C933      1.0  0.46658  0.63509  0.40044  1.0000
  C   C934      1.0  0.47149  0.65332  0.41652  1.0000
  C   C935      1.0  0.46859  0.68194  0.41413  1.0000
  H   H1651     1.0  0.44917  0.68234  0.36534  1.0000
  H   H1652     1.0  0.45446  0.63204  0.36961  1.0000
  H   H1653     1.0  0.47782  0.64530  0.43072  1.0000
  H   H1654     1.0  0.47286  0.69583  0.42641  1.0000
  C   C936      1.0  0.46348  0.88784  0.42112  1.0000
  C   C937      1.0  0.46547  0.91502  0.42833  1.0000
  C   C938      1.0  0.46319  0.93785  0.41445  1.0000
  C   C939      1.0  0.45897  0.93373  0.39311  1.0000
  C   C940      1.0  0.45702  0.90654  0.38591  1.0000
  C   C941      1.0  0.45940  0.88374  0.39975  1.0000
  H   H1655     1.0  0.46882  0.91846  0.44478  1.0000
  H   H1656     1.0  0.46478  0.95858  0.42024  1.0000
  H   H1657     1.0  0.45382  0.90307  0.36943  1.0000
  H   H1658     1.0  0.45805  0.86299  0.39388  1.0000
  C   C942      1.0  0.48112  0.73180  0.51014  1.0000
  C   C943      1.0  0.40940  0.84690  0.37732  1.0000
  H   H1659     1.0  0.33500  0.61211  0.40408  1.0000
  C   C944      1.0  0.48696  0.60307  0.46385  1.0000
  H   H1660     1.0  0.34890  0.89734  0.38258  1.0000
  C   C945      1.0  0.48057  0.71884  0.53022  1.0000
  H   H1661     1.0  0.40232  0.48651  0.39457  1.0000
  C   C946      1.0  0.47596  0.73077  0.66333  1.0000
  C   C947      1.0  0.47838  0.65014  0.49898  1.0000
  H   H1662     1.0  0.46721  0.71589  0.53816  1.0000
  H   H1663     1.0  0.31729  0.50792  0.34630  1.0000
  H   H1664     1.0  0.50487  0.87870  0.59140  1.0000
  H   H1665     1.0  0.26826  0.72586  0.50463  1.0000
  H   H1666     1.0  0.39933  0.73128  0.37311  1.0000
  H   H1667     1.0  0.29589  0.88180  0.39592  1.0000
  C   C948      1.0  0.50134  0.82915  0.56972  1.0000
  C   C949      1.0  0.33199  0.48740  0.37205  1.0000
  H   H1668     1.0  0.29380  0.55864  0.56946  1.0000
  C   C950      1.0  0.27056  0.69518  0.37794  1.0000
  C   C951      1.0  0.34150  0.90802  0.36942  1.0000
  H   H1669     1.0  0.36837  0.60751  0.39287  1.0000
  H   H1670     1.0  0.46833  0.74138  0.57153  1.0000
  H   H1671     1.0  0.27850  0.60338  0.57925  1.0000
  H   H1672     1.0  0.50650  0.67777  0.48055  1.0000
  H   H1673     1.0  0.28194  0.74152  0.48361  1.0000
  H   H1674     1.0  0.38527  0.96080  0.37774  1.0000
  H   H1675     1.0  0.40153  0.65096  0.41719  1.0000
  H   H1676     1.0  0.33266  0.50723  0.40244  1.0000
  C   C952      1.0  0.37907  0.89346  0.42657  1.0000
  H   H1677     1.0  0.47826  0.76206  0.34893  1.0000
  H   H1678     1.0  0.49761  0.50069  0.63718  1.0000
  H   H1679     1.0  0.34893  0.63510  0.41902  1.0000
  H   H1680     1.0  0.34373  0.89571  0.35472  1.0000
  H   H1681     1.0  0.33470  0.64807  0.39733  1.0000
  H   H1682     1.0  0.40277  0.97519  0.43743  1.0000
  H   H1683     1.0  0.28579  0.54408  0.52285  1.0000
  C   C953      1.0  0.40247  0.62947  0.41148  1.0000
  C   C954      1.0  0.26901  0.93272  0.37393  1.0000
  H   H1684     1.0  0.47903  0.52551  0.63232  1.0000
  S   S223      1.0  0.26940  0.87850  0.36093  1.0000
  C   C955      1.0  0.49842  0.73502  0.49981  1.0000
  H   H1685     1.0  0.38303  0.61021  0.35600  1.0000
  H   H1686     1.0  0.31342  0.70717  0.36872  1.0000
  C   C956      1.0  0.34748  0.91158  0.44040  1.0000
  H   H1687     1.0  0.40325  0.92625  0.44908  1.0000
  H   H1688     1.0  0.37299  0.91461  0.45736  1.0000
  H   H1689     1.0  0.50526  0.64160  0.33684  1.0000
  C   C957      1.0  0.29330  0.54123  0.53804  1.0000
  C   C958      1.0  0.49712  0.70952  0.54006  1.0000
  C   C959      1.0  0.40536  0.85384  0.48424  1.0000
  C   C960      1.0  0.36005  0.62548  0.38725  1.0000
  H   H1690     1.0  0.33417  0.71981  0.35557  1.0000
  C   C961      1.0  0.40497  0.86929  0.44562  1.0000
  H   H1691     1.0  0.41641  0.68168  0.39703  1.0000
  H   H1692     1.0  0.34569  0.49464  0.36599  1.0000
  C   C962      1.0  0.34681  0.95444  0.38653  1.0000
  C   C963      1.0  0.34885  0.93707  0.36591  1.0000
  H   H1693     1.0  0.37408  0.65992  0.40078  1.0000
  H   H1694     1.0  0.27605  0.64947  0.42845  1.0000
  H   H1695     1.0  0.27684  0.56865  0.60386  1.0000
  C   C964      1.0  0.26725  0.52784  0.59853  1.0000
  C   C965      1.0  0.40461  0.62985  0.33717  1.0000
  C   C966      1.0  0.34373  0.63070  0.40290  1.0000
  C   C967      1.0  0.40471  0.69133  0.38808  1.0000
  H   H1696     1.0  0.47699  0.79014  0.53126  1.0000
  H   H1697     1.0  0.27544  0.70039  0.43126  1.0000
  H   H1698     1.0  0.39249  0.69459  0.39885  1.0000
  C   C968      1.0  0.31698  0.50759  0.36396  1.0000
  C   C969      1.0  0.48537  0.80860  0.52758  1.0000
  H   H1699     1.0  0.42393  0.87885  0.40920  1.0000
  H   H1700     1.0  0.35665  0.94456  0.39791  1.0000
  H   H1701     1.0  0.33261  0.95103  0.39360  1.0000
  C   C970      1.0  0.27196  0.70762  0.39779  1.0000
  H   H1702     1.0  0.27507  0.63476  0.49797  1.0000
  C   C971      1.0  0.40439  0.62763  0.38684  1.0000
  H   H1703     1.0  0.38966  0.61903  0.41715  1.0000
  H   H1704     1.0  0.29151  0.51976  0.54384  1.0000
  H   H1705     1.0  0.26286  0.66045  0.58134  1.0000
  H   H1706     1.0  0.41918  0.63172  0.38227  1.0000
  C   C972      1.0  0.26751  0.73675  0.48905  1.0000
  C   C973      1.0  0.28984  0.90213  0.39319  1.0000
  H   H1707     1.0  0.51091  0.61616  0.56414  1.0000
  H   H1708     1.0  0.35405  0.62010  0.37171  1.0000
  S   S224      1.0  0.29731  0.75798  0.34649  1.0000
  H   H1709     1.0  0.26555  0.67628  0.51897  1.0000
  C   C974      1.0  0.47788  0.78290  0.57748  1.0000
  H   H1710     1.0  0.46961  0.63387  0.50638  1.0000
  H   H1711     1.0  0.26723  0.70000  0.47053  1.0000
  H   H1712     1.0  0.39927  0.84898  0.44163  1.0000
  C   C975      1.0  0.39758  0.87508  0.46850  1.0000
  H   H1713     1.0  0.41776  0.62522  0.34553  1.0000
  H   H1714     1.0  0.40676  0.83543  0.41000  1.0000
  N   N53       1.0  0.32773  0.73002  0.43061  1.0000
  C   C976      1.0  0.32524  0.71422  0.41031  1.0000
  C   C977      1.0  0.31894  0.71480  0.44926  1.0000
  C   C978      1.0  0.31747  0.75744  0.42825  1.0000
  C   C979      1.0  0.34802  0.73568  0.43445  1.0000
  C   C980      1.0  0.36125  0.71029  0.43703  1.0000
  C   C981      1.0  0.33266  0.72777  0.38946  1.0000
  C   C982      1.0  0.31597  0.77586  0.44835  1.0000
  C   C983      1.0  0.31956  0.68273  0.44872  1.0000
  C   C984      1.0  0.31333  0.67050  0.47010  1.0000
  C   C985      1.0  0.38153  0.71902  0.43904  1.0000
  C   C986      1.0  0.32872  0.70977  0.37029  1.0000
  C   C987      1.0  0.30441  0.80211  0.44388  1.0000
  H   H1715     1.0  0.31012  0.71043  0.40816  1.0000
  H   H1716     1.0  0.33207  0.69356  0.41114  1.0000
  H   H1717     1.0  0.32518  0.72152  0.46441  1.0000
  H   H1718     1.0  0.30373  0.72029  0.45073  1.0000
  H   H1719     1.0  0.30300  0.75415  0.42283  1.0000
  H   H1720     1.0  0.32421  0.77025  0.41578  1.0000
  H   H1721     1.0  0.35378  0.74882  0.42150  1.0000
  H   H1722     1.0  0.34949  0.74788  0.44917  1.0000
  H   H1723     1.0  0.36059  0.69635  0.42323  1.0000
  H   H1724     1.0  0.35762  0.69896  0.45186  1.0000
  H   H1725     1.0  0.32568  0.74801  0.38643  1.0000
  H   H1726     1.0  0.34799  0.73061  0.38995  1.0000
  H   H1727     1.0  0.32996  0.78234  0.45335  1.0000
  H   H1728     1.0  0.30910  0.76506  0.46189  1.0000
  H   H1729     1.0  0.30992  0.67529  0.43649  1.0000
  H   H1730     1.0  0.33363  0.67414  0.44477  1.0000
  H   H1731     1.0  0.32260  0.67714  0.48296  1.0000
  H   H1732     1.0  0.29867  0.67690  0.47404  1.0000
  H   H1733     1.0  0.31414  0.64764  0.46933  1.0000
  H   H1734     1.0  0.38608  0.73110  0.42488  1.0000
  H   H1735     1.0  0.38310  0.73187  0.45343  1.0000
  H   H1736     1.0  0.39086  0.70051  0.44050  1.0000
  H   H1737     1.0  0.36377  0.93494  0.36093  1.0000
  C   C988      1.0  0.38776  0.63169  0.35305  1.0000
  H   H1738     1.0  0.49906  0.74475  0.48429  1.0000
  H   H1739     1.0  0.31118  0.81447  0.43106  1.0000
  H   H1740     1.0  0.29007  0.79696  0.43900  1.0000
  H   H1741     1.0  0.30331  0.81490  0.45845  1.0000
  H   H1742     1.0  0.26780  0.97533  0.38418  1.0000
  H   H1743     1.0  0.41170  0.97741  0.35532  1.0000
  H   H1744     1.0  0.39947  0.85802  0.50040  1.0000
  H   H1745     1.0  0.48766  0.59680  0.49755  1.0000
  H   H1746     1.0  0.49786  0.76114  0.55684  1.0000
  H   H1747     1.0  0.40269  0.60543  0.38303  1.0000
  H   H1748     1.0  0.47032  0.81526  0.49829  1.0000
  C   C989      1.0  0.50252  0.88102  0.57404  1.0000
  C   C990      1.0  0.40871  0.93993  0.41677  1.0000
  H   H1749     1.0  0.47794  0.79671  0.59150  1.0000
  H   H1750     1.0  0.38622  0.85206  0.39930  1.0000
  H   H1751     1.0  0.33695  0.97301  0.42586  1.0000
  H   H1752     1.0  0.47912  0.56084  0.47166  1.0000
  H   H1753     1.0  0.42433  0.91320  0.43775  1.0000
  H   H1754     1.0  0.48026  0.56869  0.44367  1.0000
  S   S225      1.0  0.27133  0.61316  0.39224  1.0000
  H   H1755     1.0  0.41353  0.67030  0.36012  1.0000
  H   H1756     1.0  0.45512  0.75990  0.59170  1.0000
  S   S226      1.0  0.29358  0.97807  0.42005  1.0000
  H   H1757     1.0  0.42296  0.71800  0.36924  1.0000
  H   H1758     1.0  0.50347  0.82754  0.58720  1.0000
  H   H1759     1.0  0.39844  0.50044  0.42094  1.0000
  H   H1760     1.0  0.42048  0.86608  0.44610  1.0000
  H   H1761     1.0  0.50869  0.79324  0.61265  1.0000
  H   H1762     1.0  0.42493  0.84682  0.37709  1.0000
  C   C991      1.0  0.26458  0.55916  0.55867  1.0000
  C   C992      1.0  0.27448  0.66201  0.41435  1.0000
  H   H1763     1.0  0.37149  0.93630  0.43446  1.0000
  C   C993      1.0  0.27676  0.90607  0.37714  1.0000
  C   C994      1.0  0.48503  0.81294  0.50348  1.0000
  H   H1764     1.0  0.28657  0.52635  0.62493  1.0000
  H   H1765     1.0  0.43911  0.68447  0.47809  1.0000
  H   H1766     1.0  0.40148  0.83268  0.47964  1.0000
  H   H1767     1.0  0.48736  0.65608  0.35311  1.0000
  H   H1768     1.0  0.47997  0.66581  0.51165  1.0000
  H   H1769     1.0  0.47314  0.68538  0.47755  1.0000
  C   C995      1.0  0.46939  0.75582  0.58501  1.0000
  C   C996      1.0  0.37254  0.65101  0.38480  1.0000
  C   C997      1.0  0.50051  0.66128  0.34447  1.0000
  C   C998      1.0  0.46660  0.66547  0.48187  1.0000
  C   C999      1.0  0.44680  0.67213  0.49018  1.0000
  H   H1770     1.0  0.49711  0.71762  0.34976  1.0000
  H   H1771     1.0  0.32626  0.90891  0.37318  1.0000
  C   C1000     1.0  0.27407  0.95509  0.38669  1.0000
  C   C1001     1.0  0.50267  0.62411  0.53156  1.0000
  H   H1772     1.0  0.46541  0.65341  0.46718  1.0000
  H   H1773     1.0  0.43912  0.65287  0.49341  1.0000
  H   H1774     1.0  0.44720  0.68444  0.50498  1.0000
  H   H1775     1.0  0.36436  0.66684  0.37580  1.0000
  C   C1002     1.0  0.33647  0.48576  0.46667  1.0000
  C   C1003     1.0  0.41101  0.71976  0.38073  1.0000
  C   C1004     1.0  0.28691  0.95104  0.40295  1.0000
  H   H1776     1.0  0.49482  0.61309  0.45067  1.0000
  C   C1005     1.0  0.40849  0.88059  0.40800  1.0000
  H   H1777     1.0  0.40411  0.86273  0.36595  1.0000
  H   H1778     1.0  0.49256  0.83186  0.49878  1.0000
  Fe  Fe112     1.0  0.31414  0.79487  0.35460  1.0000
  C   C1006     1.0  0.27405  0.69092  0.41594  1.0000
  H   H1779     1.0  0.38213  0.87346  0.46915  1.0000
  S   S227      1.0  0.45550  0.96147  0.37477  1.0000
  H   H1780     1.0  0.40563  0.89573  0.39506  1.0000
  H   H1781     1.0  0.28887  0.58288  0.54836  1.0000
  C   C1007     1.0  0.40927  0.91722  0.43426  1.0000
  H   H1782     1.0  0.33362  0.50784  0.43732  1.0000
  C   C1008     1.0  0.36864  0.91534  0.44061  1.0000
  N   N54       1.0  0.40003  0.89054  0.42886  1.0000
  H   H1783     1.0  0.40485  0.82640  0.37198  1.0000
  S   S228      1.0  0.44427  0.51794  0.33780  1.0000
  H   H1784     1.0  0.49017  0.72855  0.65604  1.0000
  H   H1785     1.0  0.50451  0.63831  0.38496  1.0000
  H   H1786     1.0  0.34030  0.92834  0.44960  1.0000
  H   H1787     1.0  0.48906  0.63314  0.53715  1.0000
  H   H1788     1.0  0.34124  0.94647  0.35246  1.0000
  H   H1789     1.0  0.34224  0.91224  0.42390  1.0000
  H   H1790     1.0  0.34379  0.89153  0.44784  1.0000
  H   H1791     1.0  0.49151  0.79495  0.49509  1.0000
  H   H1792     1.0  0.50094  0.60178  0.52875  1.0000
  C   C1009     1.0  0.40170  0.85256  0.39976  1.0000
  H   H1793     1.0  0.30474  0.92105  0.41856  1.0000
  H   H1794     1.0  0.35725  0.49808  0.44383  1.0000
  S   S229      1.0  0.34575  0.79088  0.35491  1.0000
  H   H1795     1.0  0.33549  0.68913  0.37188  1.0000
  H   H1796     1.0  0.48608  0.83261  0.56793  1.0000
  H   H1797     1.0  0.36449  0.50184  0.40908  1.0000
  C   C1010     1.0  0.47648  0.50395  0.66263  1.0000
  H   H1798     1.0  0.49713  0.65685  0.46069  1.0000
  H   H1799     1.0  0.31651  0.97231  0.36135  1.0000
  C   C1011     1.0  0.28592  0.56189  0.55461  1.0000
  H   H1800     1.0  0.30841  0.54449  0.53485  1.0000
  H   H1801     1.0  0.46858  0.79233  0.56546  1.0000
  H   H1802     1.0  0.27500  0.49445  0.62003  1.0000
  C   C1012     1.0  0.50597  0.65602  0.47496  1.0000
  N   N55       1.0  0.49736  0.63824  0.49216  1.0000
  H   H1803     1.0  0.45665  0.74489  0.34392  1.0000
  H   H1804     1.0  0.47806  0.74600  0.59757  1.0000
  H   H1805     1.0  0.46589  0.73470  0.65039  1.0000
  C   C1013     1.0  0.48703  0.57218  0.45912  1.0000
  H   H1806     1.0  0.41917  0.93497  0.40398  1.0000
  H   H1807     1.0  0.37611  0.64237  0.34451  1.0000
  C   C1014     1.0  0.49810  0.77814  0.56858  1.0000
  H   H1808     1.0  0.26892  0.70782  0.36382  1.0000
  H   H1809     1.0  0.39476  0.94147  0.40956  1.0000
  C   C1015     1.0  0.34265  0.49091  0.44362  1.0000
  H   H1810     1.0  0.36457  0.98080  0.44858  1.0000
  H   H1811     1.0  0.47556  0.70128  0.34905  1.0000
  H   H1812     1.0  0.26896  0.65671  0.36106  1.0000
  H   H1813     1.0  0.30286  0.50131  0.36955  1.0000
  H   H1814     1.0  0.28000  0.64556  0.59921  1.0000
  C   C1016     1.0  0.50998  0.63888  0.51113  1.0000
  C   C1017     1.0  0.48828  0.51662  0.64471  1.0000
  H   H1815     1.0  0.49693  0.53337  0.65088  1.0000
  H   H1816     1.0  0.33771  0.50506  0.47589  1.0000
  C   C1018     1.0  0.27056  0.66620  0.37641  1.0000
  C   C1019     1.0  0.27315  0.51723  0.62040  1.0000
  H   H1817     1.0  0.48728  0.88347  0.57130  1.0000
  H   H1818     1.0  0.50918  0.68616  0.37155  1.0000
  H   H1819     1.0  0.50595  0.76928  0.58219  1.0000
  C   C1020     1.0  0.26483  0.64890  0.59649  1.0000
  H   H1820     1.0  0.46766  0.48813  0.65548  1.0000
  H   H1821     1.0  0.46723  0.52063  0.66919  1.0000
  C   C1021     1.0  0.50560  0.80394  0.53531  1.0000
  N   N56       1.0  0.50803  0.80276  0.55907  1.0000
  H   H1822     1.0  0.50835  0.85968  0.54481  1.0000
  H   H1823     1.0  0.50946  0.90004  0.56840  1.0000
  C   C1022     1.0  0.26351  0.55950  0.59883  1.0000
  C   C1023     1.0  0.26303  0.60259  0.57804  1.0000
  H   H1824     1.0  0.50158  0.56371  0.45802  1.0000
  H   H1825     1.0  0.42743  0.96714  0.43308  1.0000
  H   H1826     1.0  0.51056  0.78426  0.52791  1.0000
  C   C1024     1.0  0.51068  0.85608  0.56200  1.0000
  C   C1025     1.0  0.48736  0.70783  0.33868  1.0000
  H   H1827     1.0  0.39202  0.96902  0.33932  1.0000
  Fe  Fe113     1.0  0.47105  0.52188  0.95951  1.0000
  S   S230      1.0  0.48774  0.52089  0.92852  1.0000
  C   C1026     1.0  0.45582  0.48403  0.72926  1.0000
  Fe  Fe114     1.0  0.43430  0.53447  0.93638  1.0000
  S   S231      1.0  0.44863  0.53449  0.90469  1.0000
  S   S232      1.0  0.40296  0.54298  0.93811  1.0000
  Fe  Fe115     1.0  0.46380  0.49646  0.91631  1.0000
  H   H1828     1.0  0.31555  0.96621  0.84247  1.0000
  Fe  Fe116     1.0  0.47081  0.55908  0.91955  1.0000
  S   S233      1.0  0.48288  0.59412  0.89942  1.0000
  S   S234      1.0  0.44814  0.49502  0.94766  1.0000
  S   S235      1.0  0.45553  0.56168  0.95101  1.0000
  Fe  Fe117     1.0  0.45678  0.75654  0.87373  1.0000
  S   S236      1.0  0.44395  0.76329  0.84160  1.0000
  S   S237      1.0  0.45164  0.71837  0.89456  1.0000
  Fe  Fe118     1.0  0.46324  0.81955  0.87839  1.0000
  S   S238      1.0  0.45050  0.83026  0.84702  1.0000
  S   S239      1.0  0.47363  0.85025  0.90216  1.0000
  Fe  Fe119     1.0  0.42868  0.79944  0.85668  1.0000
  S   S240      1.0  0.39745  0.80722  0.85392  1.0000
  Fe  Fe120     1.0  0.46714  0.79344  0.83494  1.0000
  S   S241      1.0  0.48596  0.79337  0.80494  1.0000
  S   S242      1.0  0.44038  0.79166  0.88867  1.0000
  S   S243      1.0  0.48113  0.78403  0.86627  1.0000
  S   S244      1.0  0.27452  0.50319  0.90092  1.0000
  S   S245      1.0  0.50308  0.90183  0.67619  1.0000
  Fe  Fe121     1.0  0.32314  0.54916  0.85658  1.0000
  S   S246      1.0  0.30841  0.55819  0.88728  1.0000
  S   S247      1.0  0.35412  0.53796  0.85497  1.0000
  Fe  Fe122     1.0  0.28713  0.55775  0.83161  1.0000
  Fe  Fe123     1.0  0.29437  0.59399  0.87070  1.0000
  Fe  Fe124     1.0  0.28561  0.53208  0.87556  1.0000
  H   H1829     1.0  0.43853  0.77144  0.96133  1.0000
  S   S248      1.0  0.31057  0.58617  0.84018  1.0000
  S   S249      1.0  0.30130  0.52012  0.84568  1.0000
  Fe  Fe125     1.0  0.31413  0.82022  0.93264  1.0000
  S   S250      1.0  0.30379  0.81709  0.89960  1.0000
  S   S251      1.0  0.34528  0.81337  0.93709  1.0000
  Fe  Fe126     1.0  0.27493  0.83253  0.95124  1.0000
  Fe  Fe127     1.0  0.28063  0.79228  0.91352  1.0000
  Fe  Fe128     1.0  0.28669  0.85488  0.90767  1.0000
  C   C1027     1.0  0.33806  0.97549  0.87761  1.0000
  S   S252      1.0  0.29189  0.79278  0.94665  1.0000
  S   S253      1.0  0.29838  0.85993  0.94024  1.0000
  C   C1028     1.0  0.26961  0.93520  0.73066  1.0000
  C   C1029     1.0  0.37035  0.88151  0.96248  1.0000
  H   H1830     1.0  0.28239  0.83682  0.75406  1.0000
  H   H1831     1.0  0.27500  0.88225  0.73714  1.0000
  H   H1832     1.0  0.30453  0.85134  0.76098  1.0000
  C   C1030     1.0  0.28495  0.92190  0.88669  1.0000
  H   H1833     1.0  0.28770  0.88605  0.78366  1.0000
  H   H1834     1.0  0.46422  0.80560  0.69008  1.0000
  H   H1835     1.0  0.48264  0.92357  0.80908  1.0000
  H   H1836     1.0  0.43991  0.83281  0.92340  1.0000
  H   H1837     1.0  0.46666  0.55080  0.86168  1.0000
  H   H1838     1.0  0.43703  0.49809  0.75468  1.0000
  H   H1839     1.0  0.26466  0.92095  0.71828  1.0000
  C   C1031     1.0  0.38301  0.80776  0.87711  1.0000
  C   C1032     1.0  0.36516  0.82014  0.87611  1.0000
  C   C1033     1.0  0.35351  0.82180  0.89432  1.0000
  C   C1034     1.0  0.35946  0.81084  0.91375  1.0000
  C   C1035     1.0  0.37726  0.79817  0.91474  1.0000
  C   C1036     1.0  0.38894  0.79652  0.89649  1.0000
  H   H1840     1.0  0.36047  0.82902  0.86126  1.0000
  H   H1841     1.0  0.34015  0.83238  0.89336  1.0000
  H   H1842     1.0  0.38200  0.78951  0.92964  1.0000
  H   H1843     1.0  0.40244  0.78638  0.89747  1.0000
  C   C1037     1.0  0.48963  0.82096  0.78662  1.0000
  H   H1844     1.0  0.51187  0.95959  0.88442  1.0000
  C   C1038     1.0  0.44431  0.50679  0.74047  1.0000
  H   H1845     1.0  0.33200  0.93409  0.86640  1.0000
  C   C1039     1.0  0.44383  0.59627  0.85203  1.0000
  C   C1040     1.0  0.47669  0.84278  0.78445  1.0000
  C   C1041     1.0  0.48934  0.75038  0.69692  1.0000
  H   H1846     1.0  0.46766  0.74492  0.73068  1.0000
  H   H1847     1.0  0.46422  0.84340  0.79446  1.0000
  C   C1042     1.0  0.38977  0.54191  0.91470  1.0000
  C   C1043     1.0  0.39744  0.53204  0.89549  1.0000
  C   C1044     1.0  0.38651  0.53165  0.87717  1.0000
  C   C1045     1.0  0.36780  0.54089  0.87790  1.0000
  C   C1046     1.0  0.36016  0.55083  0.89707  1.0000
  C   C1047     1.0  0.37106  0.55122  0.91539  1.0000
  H   H1848     1.0  0.41166  0.52423  0.89477  1.0000
  H   H1849     1.0  0.39253  0.52390  0.86243  1.0000
  H   H1850     1.0  0.34587  0.55821  0.89786  1.0000
  H   H1851     1.0  0.36503  0.55892  0.93017  1.0000
  C   C1048     1.0  0.46905  0.88597  0.89944  1.0000
  C   C1049     1.0  0.45907  0.89680  0.88229  1.0000
  C   C1050     1.0  0.45692  0.92551  0.87973  1.0000
  C   C1051     1.0  0.46424  0.94351  0.89464  1.0000
  C   C1052     1.0  0.47319  0.93264  0.91248  1.0000
  C   C1053     1.0  0.47578  0.90394  0.91473  1.0000
  H   H1852     1.0  0.45330  0.88310  0.87082  1.0000
  H   H1853     1.0  0.44977  0.93386  0.86604  1.0000
  H   H1854     1.0  0.47914  0.88135  0.84619  1.0000
  C   C1054     1.0  0.43150  0.81401  0.95325  1.0000
  C   C1055     1.0  0.47503  0.62916  0.89950  1.0000
  C   C1056     1.0  0.46027  0.63846  0.91273  1.0000
  C   C1057     1.0  0.45373  0.66606  0.91138  1.0000
  C   C1058     1.0  0.46182  0.68472  0.89682  1.0000
  C   C1059     1.0  0.47687  0.67561  0.88394  1.0000
  C   C1060     1.0  0.48339  0.64795  0.88526  1.0000
  H   H1855     1.0  0.45380  0.62431  0.92386  1.0000
  H   H1856     1.0  0.44218  0.67292  0.92152  1.0000
  C   C1061     1.0  0.40697  0.86133  0.89968  1.0000
  H   H1857     1.0  0.33135  0.72712  0.93958  1.0000
  H   H1858     1.0  0.46457  0.55289  0.83310  1.0000
  H   H1859     1.0  0.40519  0.63558  0.84074  1.0000
  H   H1860     1.0  0.43233  0.87929  0.91000  1.0000
  S   S254      1.0  0.46360  0.97925  0.88945  1.0000
  H   H1861     1.0  0.29134  0.54789  0.95870  1.0000
  H   H1862     1.0  0.49697  0.50117  0.73261  1.0000
  C   C1062     1.0  0.28531  0.93151  0.90754  1.0000
  H   H1863     1.0  0.42889  0.91857  0.94160  1.0000
  C   C1063     1.0  0.26410  0.88550  0.00105  1.0000
  H   H1864     1.0  0.28549  0.83750  0.82557  1.0000
  H   H1865     1.0  0.48333  0.68973  0.87279  1.0000
  H   H1866     1.0  0.32642  0.56016  0.93211  1.0000
  C   C1064     1.0  0.40803  0.63088  0.89105  1.0000
  C   C1065     1.0  0.39874  0.61941  0.91121  1.0000
  H   H1867     1.0  0.41601  0.64917  0.89575  1.0000
  H   H1868     1.0  0.39697  0.63785  0.88002  1.0000
  H   H1869     1.0  0.38983  0.63567  0.91891  1.0000
  H   H1870     1.0  0.38982  0.60183  0.90732  1.0000
  H   H1871     1.0  0.40948  0.61225  0.92267  1.0000
  C   C1066     1.0  0.47578  0.91528  0.82369  1.0000
  C   C1067     1.0  0.48910  0.49145  0.68024  1.0000
  H   H1872     1.0  0.40334  0.93994  0.90029  1.0000
  H   H1873     1.0  0.28389  0.84096  0.85358  1.0000
  C   C1068     1.0  0.27816  0.94065  0.76791  1.0000
  C   C1069     1.0  0.31269  0.80539  0.84110  1.0000
  H   H1874     1.0  0.27302  0.58144  0.91170  1.0000
  H   H1875     1.0  0.33275  0.51318  0.92181  1.0000
  H   H1876     1.0  0.33756  0.98033  0.83340  1.0000
  H   H1877     1.0  0.41664  0.82069  0.92430  1.0000
  C   C1070     1.0  0.26645  0.59134  0.92606  1.0000
  H   H1878     1.0  0.48647  0.83992  0.67522  1.0000
  C   C1071     1.0  0.40117  0.85939  0.94992  1.0000
  C   C1072     1.0  0.45609  0.90689  0.81786  1.0000
  H   H1879     1.0  0.27382  0.79110  0.80385  1.0000
  H   H1880     1.0  0.46558  0.85606  0.68640  1.0000
  C   C1073     1.0  0.28088  0.97879  0.89477  1.0000
  H   H1881     1.0  0.37675  0.61515  0.82519  1.0000
  H   H1882     1.0  0.36383  0.91578  0.91192  1.0000
  H   H1883     1.0  0.44941  0.90617  0.98320  1.0000
  H   H1884     1.0  0.29178  0.55008  0.93073  1.0000
  C   C1074     1.0  0.28720  0.96019  0.70110  1.0000
  H   H1885     1.0  0.27042  0.55117  0.75258  1.0000
  H   H1886     1.0  0.36302  0.86178  0.96046  1.0000
  C   C1075     1.0  0.40179  0.88082  0.88143  1.0000
  C   C1076     1.0  0.50856  0.84090  0.75759  1.0000
  H   H1887     1.0  0.43784  0.64738  0.82277  1.0000
  H   H1888     1.0  0.28345  0.93347  0.85370  1.0000
  H   H1889     1.0  0.45391  0.69349  0.84982  1.0000
  C   C1077     1.0  0.27096  0.94010  0.79137  1.0000
  C   C1078     1.0  0.49562  0.86281  0.75547  1.0000
  H   H1890     1.0  0.32510  0.89141  0.90607  1.0000
  H   H1891     1.0  0.40736  0.97599  0.89511  1.0000
  C   C1079     1.0  0.43414  0.87503  0.95112  1.0000
  H   H1892     1.0  0.46005  0.91648  0.95812  1.0000
  N   N57       1.0  0.35349  0.69724  0.88138  1.0000
  C   C1080     1.0  0.34609  0.71547  0.89913  1.0000
  C   C1081     1.0  0.34483  0.70687  0.86088  1.0000
  C   C1082     1.0  0.34861  0.66776  0.88651  1.0000
  C   C1083     1.0  0.37449  0.69877  0.87903  1.0000
  C   C1084     1.0  0.38249  0.72808  0.87636  1.0000
  C   C1085     1.0  0.35531  0.71107  0.92103  1.0000
  C   C1086     1.0  0.35170  0.64672  0.86817  1.0000
  C   C1087     1.0  0.32322  0.70512  0.86003  1.0000
  C   C1088     1.0  0.31613  0.71284  0.83799  1.0000
  C   C1089     1.0  0.40386  0.72681  0.87570  1.0000
  C   C1090     1.0  0.34657  0.73067  0.93756  1.0000
  C   C1091     1.0  0.34938  0.61713  0.87615  1.0000
  H   H1893     1.0  0.33090  0.71220  0.90187  1.0000
  H   H1894     1.0  0.34707  0.73768  0.89464  1.0000
  H   H1895     1.0  0.34802  0.72889  0.85777  1.0000
  H   H1896     1.0  0.35111  0.69540  0.84713  1.0000
  H   H1897     1.0  0.33378  0.66636  0.89208  1.0000
  H   H1898     1.0  0.35694  0.65997  0.90014  1.0000
  H   H1899     1.0  0.38146  0.68855  0.89277  1.0000
  H   H1900     1.0  0.37956  0.68703  0.86487  1.0000
  H   H1901     1.0  0.37810  0.74168  0.88970  1.0000
  H   H1902     1.0  0.37786  0.73789  0.86131  1.0000
  H   H1903     1.0  0.35334  0.68971  0.92692  1.0000
  H   H1904     1.0  0.37051  0.71506  0.92017  1.0000
  H   H1905     1.0  0.36588  0.64797  0.86093  1.0000
  H   H1906     1.0  0.34137  0.65047  0.85549  1.0000
  H   H1907     1.0  0.31844  0.68408  0.86379  1.0000
  H   H1908     1.0  0.31643  0.71969  0.87148  1.0000
  H   H1909     1.0  0.32018  0.73412  0.83358  1.0000
  H   H1910     1.0  0.32184  0.69815  0.82590  1.0000
  H   H1911     1.0  0.30063  0.71192  0.83806  1.0000
  H   H1912     1.0  0.40932  0.71895  0.89106  1.0000
  H   H1913     1.0  0.40920  0.71336  0.86263  1.0000
  H   H1914     1.0  0.40933  0.74778  0.87290  1.0000
  H   H1915     1.0  0.35332  0.72726  0.95313  1.0000
  H   H1916     1.0  0.34865  0.75244  0.93265  1.0000
  H   H1917     1.0  0.26305  0.71281  0.86476  1.0000
  H   H1918     1.0  0.35094  0.60259  0.86264  1.0000
  H   H1919     1.0  0.36013  0.61167  0.88802  1.0000
  H   H1920     1.0  0.33533  0.61446  0.88351  1.0000
  H   H1921     1.0  0.29197  0.96945  0.97524  1.0000
  H   H1922     1.0  0.26560  0.87159  0.77647  1.0000
  H   H1923     1.0  0.38098  0.88240  0.93052  1.0000
  H   H1924     1.0  0.33527  0.89719  0.93173  1.0000
  H   H1925     1.0  0.39516  0.86898  0.86868  1.0000
  H   H1926     1.0  0.44976  0.60140  0.83607  1.0000
  C   C1092     1.0  0.34978  0.91689  0.90492  1.0000
  H   H1927     1.0  0.27380  0.51181  0.94647  1.0000
  C   C1093     1.0  0.28340  0.94085  0.86986  1.0000
  S   S255      1.0  0.48419  0.52090  0.99261  1.0000
  C   C1094     1.0  0.42697  0.83219  0.93352  1.0000
  H   H1928     1.0  0.41812  0.90849  0.96676  1.0000
  H   H1929     1.0  0.44816  0.87300  0.94306  1.0000
  H   H1930     1.0  0.43191  0.55799  0.86548  1.0000
  C   C1095     1.0  0.34027  0.94532  0.90969  1.0000
  H   H1931     1.0  0.37527  0.88285  0.97907  1.0000
  H   H1932     1.0  0.45441  0.50204  0.69822  1.0000
  H   H1933     1.0  0.50116  0.74239  0.73766  1.0000
  H   H1934     1.0  0.33429  0.48341  0.85315  1.0000
  C   C1096     1.0  0.47505  0.75475  0.67899  1.0000
  C   C1097     1.0  0.30384  0.58478  0.94667  1.0000
  H   H1935     1.0  0.37691  0.95332  0.92565  1.0000
  H   H1936     1.0  0.44420  0.82135  0.96110  1.0000
  H   H1937     1.0  0.41968  0.81432  0.96495  1.0000
  C   C1098     1.0  0.36885  0.96771  0.89352  1.0000
  C   C1099     1.0  0.51093  0.84210  0.83738  1.0000
  H   H1938     1.0  0.35162  0.91290  0.88772  1.0000
  H   H1939     1.0  0.41561  0.84418  0.89274  1.0000
  H   H1940     1.0  0.44816  0.92515  0.81176  1.0000
  C   C1100     1.0  0.48720  0.89032  0.83262  1.0000
  S   S256      1.0  0.27044  0.75736  0.89287  1.0000
  C   C1101     1.0  0.38166  0.96798  0.91318  1.0000
  H   H1941     1.0  0.27716  0.88447  0.99209  1.0000
  H   H1942     1.0  0.39056  0.58759  0.81282  1.0000
  H   H1943     1.0  0.31601  0.81108  0.82434  1.0000
  H   H1944     1.0  0.32508  0.94369  0.90648  1.0000
  C   C1102     1.0  0.33843  0.89349  0.91462  1.0000
  H   H1945     1.0  0.27396  0.61091  0.92826  1.0000
  C   C1103     1.0  0.44536  0.65413  0.83698  1.0000
  H   H1946     1.0  0.36023  0.89879  0.95968  1.0000
  H   H1947     1.0  0.41207  0.89709  0.91892  1.0000
  C   C1104     1.0  0.39651  0.59426  0.84627  1.0000
  N   N58       1.0  0.48820  0.77061  0.71508  1.0000
  C   C1105     1.0  0.46985  0.76714  0.72697  1.0000
  H   H1948     1.0  0.46050  0.75635  0.68526  1.0000
  H   H1949     1.0  0.32278  0.97850  0.88054  1.0000
  C   C1106     1.0  0.49098  0.79981  0.70720  1.0000
  C   C1107     1.0  0.47320  0.81680  0.70100  1.0000
  C   C1108     1.0  0.46793  0.78280  0.74838  1.0000
  H   H1950     1.0  0.45985  0.64532  0.83619  1.0000
  H   H1951     1.0  0.40197  0.57298  0.84855  1.0000
  N   N59       1.0  0.26917  0.92154  0.75234  1.0000
  C   C1109     1.0  0.44761  0.78530  0.75617  1.0000
  H   H1952     1.0  0.27319  0.66339  0.86404  1.0000
  H   H1953     1.0  0.32077  0.78631  0.84519  1.0000
  H   H1954     1.0  0.29003  0.83560  0.78119  1.0000
  H   H1955     1.0  0.34656  0.87382  0.91329  1.0000
  H   H1956     1.0  0.30190  0.59712  0.96136  1.0000
  H   H1957     1.0  0.39299  0.90390  0.94839  1.0000
  H   H1958     1.0  0.48692  0.85619  0.70104  1.0000
  H   H1959     1.0  0.49792  0.81232  0.71942  1.0000
  H   H1960     1.0  0.43552  0.86462  0.96682  1.0000
  C   C1110     1.0  0.45713  0.54762  0.84821  1.0000
  H   H1961     1.0  0.47586  0.77146  0.76083  1.0000
  H   H1962     1.0  0.47357  0.80383  0.74699  1.0000
  H   H1963     1.0  0.46462  0.82214  0.71534  1.0000
  C   C1111     1.0  0.28130  0.96922  0.87386  1.0000
  H   H1964     1.0  0.28700  0.91705  0.92056  1.0000
  H   H1965     1.0  0.44409  0.93963  0.97196  1.0000
  S   S257      1.0  0.29720  0.63094  0.89279  1.0000
  S   S258      1.0  0.27775  0.55825  0.79696  1.0000
  H   H1966     1.0  0.44150  0.76458  0.75809  1.0000
  H   H1967     1.0  0.44703  0.79571  0.77187  1.0000
  H   H1968     1.0  0.43919  0.79784  0.74485  1.0000
  H   H1969     1.0  0.43049  0.56148  0.83697  1.0000
  H   H1970     1.0  0.46965  0.88046  0.76756  1.0000
  C   C1112     1.0  0.43062  0.90593  0.95621  1.0000
  C   C1113     1.0  0.38678  0.88342  0.94667  1.0000
  C   C1114     1.0  0.44707  0.91763  0.96810  1.0000
  H   H1971     1.0  0.43258  0.69536  0.83497  1.0000
  H   H1972     1.0  0.48815  0.72890  0.70316  1.0000
  C   C1115     1.0  0.28950  0.66596  0.89227  1.0000
  H   H1973     1.0  0.33230  0.94494  0.82801  1.0000
  H   H1974     1.0  0.43369  0.60664  0.89103  1.0000
  C   C1116     1.0  0.28322  0.95989  0.91153  1.0000
  H   H1975     1.0  0.31659  0.49203  0.89111  1.0000
  H   H1976     1.0  0.48708  0.87436  0.82014  1.0000
  C   C1117     1.0  0.27817  0.72234  0.89298  1.0000
  H   H1977     1.0  0.47891  0.94638  0.92403  1.0000
  C   C1118     1.0  0.42141  0.60914  0.88047  1.0000
  H   H1978     1.0  0.41458  0.58887  0.88139  1.0000
  C   C1119     1.0  0.32349  0.57176  0.94699  1.0000
  H   H1979     1.0  0.42328  0.77525  0.93900  1.0000
  H   H1980     1.0  0.37247  0.94890  0.88429  1.0000
  H   H1981     1.0  0.48339  0.89568  0.92813  1.0000
  H   H1982     1.0  0.45358  0.52546  0.84794  1.0000
  C   C1120     1.0  0.29544  0.68356  0.90835  1.0000
  H   H1983     1.0  0.45667  0.89099  0.80528  1.0000
  H   H1984     1.0  0.29735  0.94555  0.80741  1.0000
  H   H1985     1.0  0.42420  0.66011  0.86161  1.0000
  H   H1986     1.0  0.38820  0.59988  0.86074  1.0000
  N   N60       1.0  0.50685  0.89593  0.83950  1.0000
  H   H1987     1.0  0.27786  0.97873  0.70273  1.0000
  C   C1121     1.0  0.28992  0.71164  0.90866  1.0000
  H   H1988     1.0  0.26396  0.98133  0.95453  1.0000
  H   H1989     1.0  0.30439  0.67542  0.92068  1.0000
  C   C1122     1.0  0.33966  0.95245  0.86073  1.0000
  H   H1990     1.0  0.28949  0.79303  0.86065  1.0000
  H   H1991     1.0  0.34938  0.49516  0.88639  1.0000
  H   H1992     1.0  0.45784  0.77337  0.71704  1.0000
  N   N61       1.0  0.41968  0.86113  0.93797  1.0000
  H   H1993     1.0  0.44575  0.64654  0.87077  1.0000
  H   H1994     1.0  0.30339  0.59884  0.93272  1.0000
  C   C1123     1.0  0.40200  0.96094  0.90703  1.0000
  H   H1995     1.0  0.41449  0.89059  0.87460  1.0000
  C   C1124     1.0  0.38312  0.59430  0.82763  1.0000
  C   C1125     1.0  0.27998  0.87602  0.77083  1.0000
  C   C1126     1.0  0.47842  0.84386  0.69022  1.0000
  H   H1996     1.0  0.29455  0.72492  0.92115  1.0000
  C   C1127     1.0  0.29177  0.80040  0.84408  1.0000
  H   H1997     1.0  0.37168  0.57979  0.83093  1.0000
  H   H1998     1.0  0.45483  0.69148  0.82129  1.0000
  H   H1999     1.0  0.33398  0.58817  0.94810  1.0000
  N   N62       1.0  0.42787  0.61582  0.85803  1.0000
  H   H2000     1.0  0.40357  0.85709  0.96729  1.0000
  H   H2001     1.0  0.39395  0.85267  0.90646  1.0000
  H   H2002     1.0  0.50082  0.79981  0.69326  1.0000
  H   H2003     1.0  0.47407  0.93206  0.83545  1.0000
  C   C1128     1.0  0.41816  0.87607  0.91692  1.0000
  C   C1129     1.0  0.43550  0.78403  0.94693  1.0000
  C   C1130     1.0  0.50367  0.76295  0.73022  1.0000
  H   H2004     1.0  0.27214  0.88121  0.83616  1.0000
  S   S259      1.0  0.28584  0.88643  0.88106  1.0000
  C   C1131     1.0  0.44671  0.68551  0.83577  1.0000
  H   H2005     1.0  0.49488  0.64100  0.87506  1.0000
  H   H2006     1.0  0.31715  0.82211  0.85172  1.0000
  C   C1132     1.0  0.28984  0.84828  0.76643  1.0000
  C   C1133     1.0  0.41236  0.61501  0.84209  1.0000
  H   H2007     1.0  0.49581  0.90832  0.87028  1.0000
  C   C1134     1.0  0.43551  0.64461  0.85794  1.0000
  H   H2008     1.0  0.41835  0.61077  0.82592  1.0000
  C   C1135     1.0  0.27788  0.67669  0.87648  1.0000
  C   C1136     1.0  0.47972  0.86359  0.76903  1.0000
  C   C1137     1.0  0.28876  0.56241  0.94536  1.0000
  H   H2009     1.0  0.29494  0.89832  0.74676  1.0000
  H   H2010     1.0  0.39167  0.89698  0.88703  1.0000
  H   H2011     1.0  0.32506  0.55763  0.96084  1.0000
  C   C1138     1.0  0.43927  0.56529  0.85094  1.0000
  H   H2012     1.0  0.44790  0.78259  0.93601  1.0000
  H   H2013     1.0  0.41085  0.96191  0.92130  1.0000
  H   H2014     1.0  0.39371  0.84039  0.94546  1.0000
  H   H2015     1.0  0.34096  0.94782  0.92726  1.0000
  H   H2016     1.0  0.45551  0.59863  0.86334  1.0000
  N   N63       1.0  0.34807  0.97016  0.89822  1.0000
  H   H2017     1.0  0.44846  0.89870  0.83202  1.0000
  H   H2018     1.0  0.31081  0.49773  0.92908  1.0000
  H   H2019     1.0  0.28803  0.78348  0.83346  1.0000
  H   H2020     1.0  0.50704  0.88536  0.79525  1.0000
  C   C1139     1.0  0.50541  0.91622  0.85764  1.0000
  C   C1140     1.0  0.27999  0.89455  0.75070  1.0000
  H   H2021     1.0  0.47287  0.51467  0.71317  1.0000
  H   H2022     1.0  0.27597  0.96254  0.76294  1.0000
  C   C1141     1.0  0.27218  0.70473  0.87693  1.0000
  H   H2023     1.0  0.47502  0.96086  0.99661  1.0000
  C   C1142     1.0  0.28897  0.94516  0.72244  1.0000
  H   H2024     1.0  0.50317  0.75107  0.68866  1.0000
  H   H2025     1.0  0.45352  0.52340  0.74579  1.0000
  C   C1143     1.0  0.50592  0.48578  0.72404  1.0000
  S   S260      1.0  0.49913  0.89058  0.73725  1.0000
  C   C1144     1.0  0.33071  0.96166  0.83991  1.0000
  C   C1145     1.0  0.28003  0.82731  0.84028  1.0000
  H   H2026     1.0  0.28360  0.96728  0.92764  1.0000
  H   H2027     1.0  0.49688  0.50900  0.68669  1.0000
  S   S261      1.0  0.26992  0.56831  0.86129  1.0000
  H   H2028     1.0  0.35441  0.94659  0.85698  1.0000
  H   H2029     1.0  0.28597  0.97738  0.79909  1.0000
  H   H2030     1.0  0.29527  0.95969  0.73363  1.0000
  H   H2031     1.0  0.27168  0.60912  0.96462  1.0000
  C   C1146     1.0  0.50559  0.82021  0.77315  1.0000
  H   H2032     1.0  0.49928  0.93633  0.85238  1.0000
  H   H2033     1.0  0.28152  0.94634  0.68894  1.0000
  C   C1147     1.0  0.46576  0.49531  0.70904  1.0000
  H   H2034     1.0  0.27011  0.91895  0.79788  1.0000
  H   H2035     1.0  0.26446  0.52385  0.97130  1.0000
  H   H2036     1.0  0.43361  0.51573  0.72969  1.0000
  H   H2037     1.0  0.28016  0.56533  0.98809  1.0000
  C   C1148     1.0  0.26619  0.57540  0.98662  1.0000
  H   H2038     1.0  0.29362  0.93723  0.76777  1.0000
  H   H2039     1.0  0.27695  0.95882  0.82166  1.0000
  C   C1149     1.0  0.28363  0.95642  0.80569  1.0000
  H   H2040     1.0  0.50375  0.77781  0.74357  1.0000
  H   H2041     1.0  0.30117  0.96698  0.69546  1.0000
  N   N64       1.0  0.26868  0.57275  0.94533  1.0000
  H   H2042     1.0  0.29883  0.92743  0.72000  1.0000
  H   H2043     1.0  0.49630  0.83695  0.84184  1.0000
  C   C1150     1.0  0.32538  0.49338  0.92341  1.0000
  H   H2044     1.0  0.26329  0.94380  0.98393  1.0000
  H   H2045     1.0  0.51202  0.84302  0.81985  1.0000
  C   C1151     1.0  0.28347  0.97436  0.98977  1.0000
  C   C1152     1.0  0.26370  0.58969  0.96477  1.0000
  C   C1153     1.0  0.26316  0.96623  0.98695  1.0000
  C   C1154     1.0  0.26283  0.53536  0.78361  1.0000
  H   H2046     1.0  0.47841  0.77369  0.66978  1.0000
  H   H2047     1.0  0.47235  0.71115  0.67146  1.0000
  H   H2048     1.0  0.68856  0.33535  0.25265  1.0000
  N   N65       1.0  0.68176  0.04844  0.08393  1.0000
  H   H2049     1.0  0.59118  0.24366  0.19529  1.0000
  Fe  Fe129     1.0  0.54618  0.38363  0.12036  1.0000
  S   S262      1.0  0.55497  0.39359  0.08679  1.0000
  C   C1155     1.0  0.64925  0.07389  0.08759  1.0000
  Fe  Fe130     1.0  0.57179  0.42726  0.10024  1.0000
  S   S263      1.0  0.60170  0.43338  0.08949  1.0000
  Fe  Fe131     1.0  0.53133  0.42522  0.08622  1.0000
  S   S264      1.0  0.56468  0.41578  0.13378  1.0000
  H   H2050     1.0  0.53125  0.31704  0.24172  1.0000
  S   S265      1.0  0.53634  0.19174  0.20686  1.0000
  Fe  Fe132     1.0  0.53071  0.12864  0.17030  1.0000
  S   S266      1.0  0.54372  0.12504  0.20245  1.0000
  H   H2051     1.0  0.70414  0.09858  0.07594  1.0000
  H   H2052     1.0  0.74357  0.36213  0.23273  1.0000
  Fe  Fe133     1.0  0.55852  0.16373  0.19250  1.0000
  S   S267      1.0  0.58964  0.16879  0.19690  1.0000
  S   S268      1.0  0.54667  0.16588  0.15992  1.0000
  Fe  Fe134     1.0  0.66834  0.18537  0.11155  1.0000
  S   S269      1.0  0.68618  0.20008  0.13772  1.0000
  S   S270      1.0  0.63680  0.18784  0.11225  1.0000
  Fe  Fe135     1.0  0.70213  0.16852  0.08248  1.0000
  S   S271      1.0  0.72267  0.18242  0.10681  1.0000
  S   S272      1.0  0.70536  0.14805  0.04967  1.0000
  Fe  Fe136     1.0  0.70351  0.16163  0.13076  1.0000
  S   S273      1.0  0.70952  0.13297  0.15855  1.0000
  Fe  Fe137     1.0  0.70335  0.21995  0.11179  1.0000
  S   S274      1.0  0.71085  0.26575  0.11009  1.0000
  S   S275      1.0  0.68430  0.14571  0.10634  1.0000
  S   S276      1.0  0.68427  0.20724  0.08574  1.0000
  Fe  Fe138     1.0  0.71046  0.45924  0.20534  1.0000
  S   S277      1.0  0.73041  0.43722  0.18262  1.0000
  H   H2053     1.0  0.59158  0.46379  0.12711  1.0000
  Fe  Fe139     1.0  0.67812  0.45684  0.17328  1.0000
  S   S278      1.0  0.69563  0.43474  0.14869  1.0000
  C   C1156     1.0  0.68563  0.99930  0.06853  1.0000
  Fe  Fe140     1.0  0.70656  0.40892  0.17574  1.0000
  S   S279      1.0  0.70661  0.36194  0.17936  1.0000
  Fe  Fe141     1.0  0.71741  0.46502  0.15774  1.0000
  S   S280      1.0  0.72760  0.00622  0.14232  1.0000
  S   S281      1.0  0.68744  0.42949  0.20005  1.0000
  C   C1157     1.0  0.71263  0.39254  0.26881  1.0000
  H   H2054     1.0  0.58182  0.09334  0.21030  1.0000
  H   H2055     1.0  0.67592  0.09141  0.09113  1.0000
  S   S282      1.0  0.64815  0.47078  0.16843  1.0000
  H   H2056     1.0  0.72745  0.22540  0.02041  1.0000
  C   C1158     1.0  0.54820  0.29018  0.27473  1.0000
  H   H2057     1.0  0.70767  0.11928  0.01005  1.0000
  C   C1159     1.0  0.67026  0.07474  0.08130  1.0000
  H   H2058     1.0  0.75736  0.11834  0.23254  1.0000
  H   H2059     1.0  0.72984  0.41010  0.22389  1.0000
  H   H2060     1.0  0.59141  0.05876  0.20659  1.0000
  S   S283      1.0  0.52098  0.41278  0.11931  1.0000
  C   C1160     1.0  0.71339  0.09779  0.15279  1.0000
  C   C1161     1.0  0.72667  0.08954  0.13738  1.0000
  C   C1162     1.0  0.73092  0.06137  0.13441  1.0000
  C   C1163     1.0  0.72194  0.04130  0.14678  1.0000
  C   C1164     1.0  0.70863  0.04955  0.16217  1.0000
  C   C1165     1.0  0.70434  0.07770  0.16512  1.0000
  H   H2061     1.0  0.54492  0.47204  0.04604  1.0000
  H   H2062     1.0  0.70245  0.17108  0.22711  1.0000
  H   H2063     1.0  0.70169  0.03432  0.17188  1.0000
  H   H2064     1.0  0.69407  0.08391  0.17710  1.0000
  C   C1166     1.0  0.70847  0.29228  0.12949  1.0000
  C   C1167     1.0  0.71142  0.31979  0.12321  1.0000
  C   C1168     1.0  0.71037  0.34147  0.13809  1.0000
  C   C1169     1.0  0.70667  0.33582  0.15958  1.0000
  C   C1170     1.0  0.70343  0.30838  0.16583  1.0000
  C   C1171     1.0  0.70422  0.28676  0.15090  1.0000
  H   H2065     1.0  0.71491  0.32426  0.10676  1.0000
  H   H2066     1.0  0.71300  0.36240  0.13301  1.0000
  H   H2067     1.0  0.70058  0.30370  0.18240  1.0000
  H   H2068     1.0  0.70199  0.26573  0.15602  1.0000
  H   H2069     1.0  0.53908  0.25687  0.19238  1.0000
  H   H2070     1.0  0.66211  0.34183  0.22864  1.0000
  C   C1172     1.0  0.74328  0.13571  0.04207  1.0000
  C   C1173     1.0  0.72491  0.13395  0.03508  1.0000
  C   C1174     1.0  0.75028  0.99101  0.24347  1.0000
  H   H2071     1.0  0.54837  0.99969  0.12667  1.0000
  H   H2072     1.0  0.52524  0.27287  0.25881  1.0000
  H   H2073     1.0  0.67137  0.08216  0.06448  1.0000
  C   C1175     1.0  0.60312  0.17855  0.17431  1.0000
  C   C1176     1.0  0.59456  0.18780  0.15572  1.0000
  C   C1177     1.0  0.60519  0.19175  0.13702  1.0000
  C   C1178     1.0  0.62459  0.18739  0.13687  1.0000
  C   C1179     1.0  0.63346  0.18062  0.15592  1.0000
  C   C1180     1.0  0.62270  0.17586  0.17455  1.0000
  H   H2074     1.0  0.57971  0.19163  0.15558  1.0000
  H   H2075     1.0  0.59829  0.19770  0.12248  1.0000
  H   H2076     1.0  0.64849  0.17787  0.15612  1.0000
  H   H2077     1.0  0.62952  0.16932  0.18899  1.0000
  H   H2078     1.0  0.51456  0.24510  0.23520  1.0000
  C   C1181     1.0  0.61490  0.44330  0.11127  1.0000
  H   H2079     1.0  0.71743  0.31196  0.24430  1.0000
  H   H2080     1.0  0.51455  0.47910  0.23306  1.0000
  H   H2081     1.0  0.73459  0.27393  0.26168  1.0000
  C   C1182     1.0  0.64443  0.44439  0.12984  1.0000
  C   C1183     1.0  0.63405  0.43657  0.11218  1.0000
  H   H2082     1.0  0.71738  0.28880  0.27979  1.0000
  H   H2083     1.0  0.65819  0.00671  0.14762  1.0000
  H   H2084     1.0  0.65900  0.43850  0.13079  1.0000
  H   H2085     1.0  0.64075  0.42489  0.09945  1.0000
  H   H2086     1.0  0.57373  0.14970  0.09288  1.0000
  H   H2087     1.0  0.57165  0.16174  0.11982  1.0000
  C   C1184     1.0  0.54049  0.01296  0.13742  1.0000
  H   H2088     1.0  0.67446  0.36797  0.21397  1.0000
  N   N66       1.0  0.56907  0.47418  0.02447  1.0000
  H   H2089     1.0  0.68449  0.02521  0.23190  1.0000
  C   C1185     1.0  0.67341  0.02602  0.07091  1.0000
  H   H2090     1.0  0.70162  0.47113  0.10134  1.0000
  H   H2091     1.0  0.67015  0.00032  0.11062  1.0000
  C   C1186     1.0  0.54129  0.30976  0.13851  1.0000
  H   H2092     1.0  0.68394  0.05960  0.11712  1.0000
  C   C1187     1.0  0.55152  0.28565  0.14390  1.0000
  C   C1188     1.0  0.52553  0.33965  0.20263  1.0000
  H   H2093     1.0  0.67061  0.03381  0.05452  1.0000
  H   H2094     1.0  0.73772  0.09902  0.08243  1.0000
  H   H2095     1.0  0.71071  0.03585  0.07796  1.0000
  H   H2096     1.0  0.71366  0.35108  0.22487  1.0000
  H   H2097     1.0  0.76106  0.43412  0.31545  1.0000
  C   C1189     1.0  0.67618  0.34896  0.22370  1.0000
  H   H2098     1.0  0.56310  0.29526  0.27184  1.0000
  C   C1190     1.0  0.63581  0.45973  0.14622  1.0000
  H   H2099     1.0  0.56663  0.28587  0.14359  1.0000
  C   C1191     1.0  0.54495  0.26449  0.20740  1.0000
  H   H2100     1.0  0.75099  0.98884  0.22636  1.0000
  H   H2101     1.0  0.67896  0.45546  0.10320  1.0000
  N   N67       1.0  0.72053  0.36971  0.25491  1.0000
  H   H2102     1.0  0.57505  0.44377  0.18925  1.0000
  C   C1192     1.0  0.75299  0.07458  0.19357  1.0000
  C   C1193     1.0  0.71071  0.07975  0.08293  1.0000
  H   H2103     1.0  0.51350  0.06330  0.27857  1.0000
  C   C1194     1.0  0.71391  0.12928  0.22925  1.0000
  C   C1195     1.0  0.74087  0.40624  0.23569  1.0000
  H   H2104     1.0  0.68315  0.00946  0.14545  1.0000
  N   N68       1.0  0.64515  0.33789  0.12309  1.0000
  C   C1196     1.0  0.62696  0.33386  0.11182  1.0000
  C   C1197     1.0  0.65117  0.31162  0.13454  1.0000
  C   C1198     1.0  0.64164  0.36004  0.13955  1.0000
  C   C1199     1.0  0.66046  0.34746  0.10815  1.0000
  C   C1200     1.0  0.66595  0.32793  0.08961  1.0000
  C   C1201     1.0  0.61853  0.35948  0.10018  1.0000
  C   C1202     1.0  0.65806  0.36568  0.15457  1.0000
  C   C1203     1.0  0.64601  0.28379  0.12435  1.0000
  C   C1204     1.0  0.65574  0.25952  0.13548  1.0000
  C   C1205     1.0  0.67971  0.34159  0.07416  1.0000
  C   C1206     1.0  0.60082  0.35212  0.08850  1.0000
  C   C1207     1.0  0.65172  0.38518  0.17236  1.0000
  H   H2105     1.0  0.61613  0.32661  0.12345  1.0000
  H   H2106     1.0  0.62836  0.31733  0.09979  1.0000
  H   H2107     1.0  0.66657  0.31125  0.13695  1.0000
  H   H2108     1.0  0.64475  0.31083  0.15084  1.0000
  H   H2109     1.0  0.62914  0.35493  0.14960  1.0000
  H   H2110     1.0  0.63832  0.38023  0.13185  1.0000
  H   H2111     1.0  0.65694  0.36825  0.10158  1.0000
  H   H2112     1.0  0.67359  0.35022  0.11696  1.0000
  H   H2113     1.0  0.65366  0.32209  0.08038  1.0000
  H   H2114     1.0  0.67305  0.30905  0.09590  1.0000
  H   H2115     1.0  0.61444  0.37601  0.11157  1.0000
  H   H2116     1.0  0.62855  0.36781  0.08824  1.0000
  H   H2117     1.0  0.66970  0.37564  0.14572  1.0000
  H   H2118     1.0  0.66365  0.34656  0.16213  1.0000
  H   H2119     1.0  0.63069  0.28075  0.12592  1.0000
  H   H2120     1.0  0.64992  0.28278  0.10726  1.0000
  H   H2121     1.0  0.65112  0.23993  0.12853  1.0000
  H   H2122     1.0  0.67112  0.26060  0.13315  1.0000
  H   H2123     1.0  0.65222  0.25929  0.15276  1.0000
  H   H2124     1.0  0.68407  0.32672  0.06155  1.0000
  H   H2125     1.0  0.67310  0.35999  0.06653  1.0000
  H   H2126     1.0  0.69241  0.34788  0.08257  1.0000
  H   H2127     1.0  0.58987  0.34506  0.09996  1.0000
  H   H2128     1.0  0.59529  0.37064  0.08002  1.0000
  H   H2129     1.0  0.60384  0.33571  0.07662  1.0000
  H   H2130     1.0  0.64631  0.40503  0.16576  1.0000
  H   H2131     1.0  0.64070  0.37569  0.18250  1.0000
  H   H2132     1.0  0.66380  0.38948  0.18239  1.0000
  C   C1208     1.0  0.75320  0.20445  0.00952  1.0000
  H   H2133     1.0  0.74422  0.06391  0.25264  1.0000
  H   H2134     1.0  0.69716  0.00276  0.05675  1.0000
  C   C1209     1.0  0.57402  0.45967  0.20189  1.0000
  C   C1210     1.0  0.57054  0.42244  0.03568  1.0000
  H   H2135     1.0  0.75050  0.37468  0.25760  1.0000
  H   H2136     1.0  0.57995  0.45077  0.21668  1.0000
  C   C1211     1.0  0.74028  0.08415  0.24542  1.0000
  C   C1212     1.0  0.68765  0.35477  0.24330  1.0000
  H   H2137     1.0  0.54748  0.27476  0.28786  1.0000
  H   H2138     1.0  0.67971  0.37041  0.25282  1.0000
  H   H2139     1.0  0.73900  0.06190  0.08371  1.0000
  H   H2140     1.0  0.53375  0.30502  0.18264  1.0000
  C   C1213     1.0  0.72830  0.31727  0.25581  1.0000
  H   H2141     1.0  0.56865  0.28138  0.18906  1.0000
  H   H2142     1.0  0.62243  0.00281  0.13519  1.0000
  H   H2143     1.0  0.70933  0.08116  0.10042  1.0000
  H   H2144     1.0  0.65953  0.02015  0.07739  1.0000
  H   H2145     1.0  0.73139  0.19170  0.03207  1.0000
  H   H2146     1.0  0.54809  0.25917  0.25087  1.0000
  H   H2147     1.0  0.75948  0.22422  0.00484  1.0000
  N   N69       1.0  0.60255  0.09533  0.14698  1.0000
  C   C1214     1.0  0.59947  0.09165  0.17065  1.0000
  C   C1215     1.0  0.62099  0.10908  0.14242  1.0000
  C   C1216     1.0  0.58700  0.11420  0.13910  1.0000
  C   C1217     1.0  0.60160  0.06848  0.13518  1.0000
  C   C1218     1.0  0.61537  0.04531  0.14214  1.0000
  C   C1219     1.0  0.58083  0.07833  0.17773  1.0000
  C   C1220     1.0  0.58891  0.12443  0.11569  1.0000
  C   C1221     1.0  0.63743  0.10251  0.15759  1.0000
  C   C1222     1.0  0.65611  0.11142  0.14787  1.0000
  C   C1223     1.0  0.61193  0.01864  0.13028  1.0000
  C   C1224     1.0  0.58016  0.07357  0.20178  1.0000
  C   C1225     1.0  0.57226  0.14304  0.10975  1.0000
  H   H2148     1.0  0.60011  0.11207  0.17865  1.0000
  H   H2149     1.0  0.61078  0.07890  0.17779  1.0000
  H   H2150     1.0  0.62583  0.10498  0.12582  1.0000
  H   H2151     1.0  0.61910  0.13183  0.14324  1.0000
  H   H2152     1.0  0.58556  0.13279  0.14937  1.0000
  H   H2153     1.0  0.57332  0.10386  0.14036  1.0000
  H   H2154     1.0  0.58716  0.06040  0.13600  1.0000
  H   H2155     1.0  0.60451  0.07179  0.11795  1.0000
  H   H2156     1.0  0.61399  0.04072  0.15938  1.0000
  H   H2157     1.0  0.62991  0.05117  0.13820  1.0000
  H   H2158     1.0  0.56874  0.09194  0.17373  1.0000
  H   H2159     1.0  0.57909  0.05806  0.17008  1.0000
  H   H2160     1.0  0.58931  0.10691  0.10448  1.0000
  H   H2161     1.0  0.60174  0.13653  0.11309  1.0000
  H   H2162     1.0  0.63506  0.11397  0.17270  1.0000
  H   H2163     1.0  0.63887  0.08038  0.16168  1.0000
  H   H2164     1.0  0.65523  0.13313  0.14225  1.0000
  H   H2165     1.0  0.66716  0.10978  0.15997  1.0000
  H   H2166     1.0  0.66029  0.09806  0.13426  1.0000
  C   C1226     1.0  0.74904  0.99649  0.28793  1.0000
  H   H2167     1.0  0.61337  0.02172  0.11281  1.0000
  H   H2168     1.0  0.72227  0.16439  0.20956  1.0000
  H   H2169     1.0  0.56646  0.06492  0.20656  1.0000
  C   C1227     1.0  0.53269  0.05930  0.15021  1.0000
  C   C1228     1.0  0.54288  0.04162  0.13648  1.0000
  S   S284      1.0  0.53329  0.09514  0.14525  1.0000
  H   H2170     1.0  0.54026  0.30905  0.27981  1.0000
  H   H2171     1.0  0.56625  0.47720  0.05863  1.0000
  Fe  Fe142     1.0  0.54049  0.44563  0.13044  1.0000
  H   H2172     1.0  0.72123  0.03518  0.25484  1.0000
  H   H2173     1.0  0.74189  0.29643  0.28245  1.0000
  C   C1229     1.0  0.75984  0.41005  0.22459  1.0000
  H   H2174     1.0  0.64538  0.11855  0.09072  1.0000
  H   H2175     1.0  0.55456  0.30764  0.23477  1.0000
  C   C1230     1.0  0.68348  0.04068  0.10720  1.0000
  H   H2176     1.0  0.55894  0.13188  0.11180  1.0000
  H   H2177     1.0  0.74742  0.04499  0.21886  1.0000
  C   C1231     1.0  0.56621  0.26821  0.20331  1.0000
  H   H2178     1.0  0.54349  0.24713  0.21874  1.0000
  H   H2179     1.0  0.73656  0.11764  0.20815  1.0000
  H   H2180     1.0  0.69964  0.15095  0.20350  1.0000
  C   C1232     1.0  0.72494  0.40082  0.28766  1.0000
  C   C1233     1.0  0.52745  0.00174  0.15168  1.0000
  C   C1234     1.0  0.53986  0.27819  0.25471  1.0000
  H   H2181     1.0  0.71519  0.10380  0.20112  1.0000
  H   H2182     1.0  0.74477  0.22037  0.04056  1.0000
  H   H2183     1.0  0.70987  0.34001  0.27781  1.0000
  H   H2184     1.0  0.59364  0.46151  0.04201  1.0000
  H   H2185     1.0  0.56620  0.42850  0.05204  1.0000
  C   C1235     1.0  0.71271  0.03652  0.24033  1.0000
  C   C1236     1.0  0.66831  0.02155  0.11690  1.0000
  H   H2186     1.0  0.72937  0.05009  0.20025  1.0000
  C   C1237     1.0  0.52052  0.04801  0.16544  1.0000
  C   C1238     1.0  0.69352  0.02511  0.24605  1.0000
  C   C1239     1.0  0.72281  0.34391  0.26822  1.0000
  H   H2187     1.0  0.62423  0.10015  0.08635  1.0000
  C   C1240     1.0  0.70730  0.36541  0.23689  1.0000
  C   C1241     1.0  0.72181  0.12087  0.01560  1.0000
  C   C1242     1.0  0.58986  0.47474  0.02814  1.0000
  C   C1243     1.0  0.60630  0.45826  0.12779  1.0000
  S   S285      1.0  0.71435  0.47127  0.24009  1.0000
  C   C1244     1.0  0.72411  0.10744  0.21502  1.0000
  H   H2188     1.0  0.55231  0.05023  0.12468  1.0000
  H   H2189     1.0  0.54651  0.02818  0.08974  1.0000
  H   H2190     1.0  0.64201  0.05733  0.07925  1.0000
  C   C1245     1.0  0.63930  0.10117  0.08196  1.0000
  H   H2191     1.0  0.69903  0.38657  0.27609  1.0000
  C   C1246     1.0  0.56220  0.39454  0.03071  1.0000
  C   C1247     1.0  0.70108  0.05372  0.07473  1.0000
  H   H2192     1.0  0.73386  0.34664  0.28017  1.0000
  H   H2193     1.0  0.64759  0.07106  0.10499  1.0000
  H   H2194     1.0  0.73941  0.42229  0.24811  1.0000
  H   H2195     1.0  0.71912  0.02267  0.22811  1.0000
  H   H2196     1.0  0.70136  0.06673  0.21831  1.0000
  H   H2197     1.0  0.70049  0.12160  0.23575  1.0000
  H   H2198     1.0  0.65399  0.02864  0.11315  1.0000
  C   C1248     1.0  0.75883  0.09969  0.24264  1.0000
  H   H2199     1.0  0.55046  0.24292  0.15397  1.0000
  C   C1249     1.0  0.54031  0.03036  0.07377  1.0000
  Fe  Fe143     1.0  0.52363  0.19185  0.17455  1.0000
  H   H2200     1.0  0.54665  0.04831  0.06557  1.0000
  H   H2201     1.0  0.56994  0.23008  0.18526  1.0000
  C   C1250     1.0  0.54238  0.26126  0.14990  1.0000
  H   H2202     1.0  0.69712  0.02982  0.11015  1.0000
  C   C1251     1.0  0.71102  0.06674  0.23203  1.0000
  Fe  Fe144     1.0  0.52006  0.15332  0.21358  1.0000
  N   N70       1.0  0.72914  0.08026  0.22560  1.0000
  H   H2203     1.0  0.70363  0.07856  0.24487  1.0000
  H   H2204     1.0  0.69522  0.00345  0.25174  1.0000
  H   H2205     1.0  0.72282  0.13517  0.24263  1.0000
  H   H2206     1.0  0.57288  0.27757  0.21717  1.0000
  H   H2207     1.0  0.55188  0.31835  0.19817  1.0000
  H   H2208     1.0  0.72573  0.43207  0.31217  1.0000
  H   H2209     1.0  0.54876  0.44289  0.01821  1.0000
  H   H2210     1.0  0.56763  0.37864  0.04193  1.0000
  C   C1252     1.0  0.66964  0.01949  0.14107  1.0000
  H   H2211     1.0  0.64051  0.10543  0.06461  1.0000
  C   C1253     1.0  0.52870  0.36022  0.18445  1.0000
  H   H2212     1.0  0.70932  0.41128  0.25907  1.0000
  H   H2213     1.0  0.73151  0.09462  0.25791  1.0000
  H   H2214     1.0  0.70064  0.05582  0.05706  1.0000
  H   H2215     1.0  0.66843  0.04024  0.14840  1.0000
  H   H2216     1.0  0.75526  0.03794  0.17363  1.0000
  C   C1254     1.0  0.73940  0.37694  0.24552  1.0000
  H   H2217     1.0  0.71625  0.44414  0.28739  1.0000
  S   S286      1.0  0.55370  0.34051  0.13331  1.0000
  H   H2218     1.0  0.68315  0.33266  0.21383  1.0000
  H   H2219     1.0  0.57511  0.22675  0.21319  1.0000
  C   C1255     1.0  0.53696  0.31242  0.19883  1.0000
  C   C1256     1.0  0.56420  0.44477  0.01945  1.0000
  H   H2220     1.0  0.73397  0.10490  0.12806  1.0000
  C   C1257     1.0  0.73947  0.06130  0.21008  1.0000
  H   H2221     1.0  0.59776  0.01089  0.13419  1.0000
  H   H2222     1.0  0.74172  0.31974  0.24695  1.0000
  H   H2223     1.0  0.54385  0.01156  0.06442  1.0000
  C   C1258     1.0  0.73067  0.29269  0.27094  1.0000
  C   C1259     1.0  0.51313  0.28354  0.21554  1.0000
  C   C1260     1.0  0.73143  0.07984  0.07661  1.0000
  C   C1261     1.0  0.57614  0.24049  0.19902  1.0000
  H   H2224     1.0  0.74593  0.14568  0.05700  1.0000
  H   H2225     1.0  0.74141  0.05512  0.12267  1.0000
  C   C1262     1.0  0.61681  0.46689  0.14495  1.0000
  H   H2226     1.0  0.56609  0.38807  0.01427  1.0000
  S   S287      1.0  0.54908  0.45961  0.09762  1.0000
  H   H2227     1.0  0.70490  0.38500  0.22799  1.0000
  C   C1263     1.0  0.75519  0.11170  0.01010  1.0000
  H   H2228     1.0  0.68661  0.03742  0.25892  1.0000
  H   H2229     1.0  0.51971  0.09952  0.25134  1.0000
  H   H2230     1.0  0.73322  0.07926  0.05903  1.0000
  H   H2231     1.0  0.58597  0.41937  0.03504  1.0000
  C   C1264     1.0  0.52174  0.30905  0.13885  1.0000
  H   H2232     1.0  0.51479  0.01534  0.02280  1.0000
  C   C1265     1.0  0.70934  0.15549  0.21654  1.0000
  H   H2233     1.0  0.69204  0.99307  0.08380  1.0000
  H   H2234     1.0  0.72557  0.38397  0.29968  1.0000
  C   C1266     1.0  0.54021  0.29938  0.23620  1.0000
  H   H2235     1.0  0.59939  0.47836  0.19140  1.0000
  H   H2236     1.0  0.73942  0.40535  0.28242  1.0000
  C   C1267     1.0  0.52285  0.26084  0.15104  1.0000
  N   N71       1.0  0.53384  0.28956  0.21489  1.0000
  S   S288      1.0  0.53630  0.47451  0.15861  1.0000
  H   H2237     1.0  0.75618  0.12461  0.27134  1.0000
  H   H2238     1.0  0.54384  0.36422  0.18208  1.0000
  C   C1268     1.0  0.73826  0.21082  0.02663  1.0000
  H   H2239     1.0  0.51367  0.32737  0.13467  1.0000
  C   C1269     1.0  0.68790  0.46934  0.09357  1.0000
  H   H2240     1.0  0.70248  0.42267  0.30502  1.0000
  H   H2241     1.0  0.61014  0.47915  0.15724  1.0000
  C   C1270     1.0  0.75829  0.12462  0.02966  1.0000
  H   H2242     1.0  0.74487  0.08650  0.18160  1.0000
  C   C1271     1.0  0.71681  0.42648  0.29871  1.0000
  H   H2243     1.0  0.52990  0.34972  0.21743  1.0000
  H   H2244     1.0  0.54672  0.39558  0.03245  1.0000
  H   H2245     1.0  0.69033  0.45991  0.07769  1.0000
  H   H2246     1.0  0.74844  0.99845  0.30505  1.0000
  H   H2247     1.0  0.51254  0.06151  0.17600  1.0000
  H   H2248     1.0  0.76069  0.43146  0.21833  1.0000
  H   H2249     1.0  0.51646  0.00856  0.10359  1.0000
  H   H2250     1.0  0.55898  0.46508  0.20458  1.0000
  C   C1272     1.0  0.51779  0.01931  0.16604  1.0000
  S   S289      1.0  0.51562  0.42584  0.05468  1.0000
  H   H2251     1.0  0.51374  0.03697  0.05934  1.0000
  H   H2252     1.0  0.52316  0.35221  0.16941  1.0000
  H   H2253     1.0  0.52131  0.38007  0.18807  1.0000
  H   H2254     1.0  0.51655  0.05465  0.08403  1.0000
  H   H2255     1.0  0.59766  0.46595  0.01413  1.0000
  C   C1273     1.0  0.51260  0.28477  0.14523  1.0000
  C   C1274     1.0  0.76146  0.01246  0.27594  1.0000
  H   H2256     1.0  0.51421  0.99142  0.07927  1.0000
  C   C1275     1.0  0.51913  0.03484  0.07566  1.0000
  H   H2257     1.0  0.57026  0.43865  0.00365  1.0000
  H   H2258     1.0  0.76162  0.39561  0.21103  1.0000
  C   C1276     1.0  0.76191  0.00968  0.25366  1.0000
  H   H2259     1.0  0.51290  0.46006  0.19675  1.0000
  C   C1277     1.0  0.73681  0.10969  0.00325  1.0000
  S   S290      1.0  0.55755  0.41873  0.64724  1.0000
  H   H2260     1.0  0.64369  0.10458  0.60912  1.0000
  Fe  Fe145     1.0  0.53583  0.38623  0.65231  1.0000
  H   H2261     1.0  0.52495  0.33803  0.54500  1.0000
  Fe  Fe146     1.0  0.55947  0.17509  0.60930  1.0000
  S   S291      1.0  0.54702  0.17118  0.64197  1.0000
  S   S292      1.0  0.59057  0.18174  0.60355  1.0000
  C   C1278     1.0  0.56919  0.24780  0.65939  1.0000
  Fe  Fe147     1.0  0.52423  0.19951  0.63050  1.0000
  H   H2262     1.0  0.69091  0.28812  0.55083  1.0000
  Fe  Fe148     1.0  0.53081  0.13600  0.62918  1.0000
  C   C1279     1.0  0.64444  0.33361  0.63578  1.0000
  S   S293      1.0  0.53772  0.20608  0.59839  1.0000
  S   S294      1.0  0.54450  0.13853  0.59664  1.0000
  S   S295      1.0  0.69101  0.16699  0.65204  1.0000
  H   H2263     1.0  0.67820  0.34549  0.65357  1.0000
  H   H2264     1.0  0.56744  0.46891  0.59732  1.0000
  S   S296      1.0  0.71475  0.23259  0.63141  1.0000
  H   H2265     1.0  0.51798  0.33288  0.66588  1.0000
  H   H2266     1.0  0.65642  0.24029  0.66477  1.0000
  H   H2267     1.0  0.63374  0.99585  0.58717  1.0000
  Fe  Fe149     1.0  0.68348  0.41534  0.60346  1.0000
  S   S297      1.0  0.69486  0.42090  0.63585  1.0000
  S   S298      1.0  0.65230  0.41020  0.59916  1.0000
  Fe  Fe150     1.0  0.72224  0.41935  0.58219  1.0000
  S   S299      1.0  0.73562  0.42727  0.61387  1.0000
  S   S300      1.0  0.74260  0.41613  0.55344  1.0000
  Fe  Fe151     1.0  0.71797  0.39218  0.62532  1.0000
  S   S301      1.0  0.72939  0.35886  0.64732  1.0000
  Fe  Fe152     1.0  0.71103  0.45588  0.62137  1.0000
  S   S302      1.0  0.70224  0.00490  0.60334  1.0000
  S   S303      1.0  0.70547  0.38345  0.59377  1.0000
  S   S304      1.0  0.69888  0.45092  0.58880  1.0000
  H   H2268     1.0  0.57853  0.35200  0.58846  1.0000
  H   H2269     1.0  0.55833  0.15456  0.50477  1.0000
  H   H2270     1.0  0.60169  0.35837  0.57797  1.0000
  H   H2271     1.0  0.61912  0.27142  0.57348  1.0000
  H   H2272     1.0  0.64786  0.24119  0.57398  1.0000
  H   H2273     1.0  0.64783  0.31641  0.59209  1.0000
  C   C1280     1.0  0.62845  0.98863  0.60292  1.0000
  H   H2274     1.0  0.74251  0.07971  0.60915  1.0000
  H   H2275     1.0  0.51579  0.23003  0.45753  1.0000
  H   H2276     1.0  0.71887  0.29295  0.58513  1.0000
  H   H2277     1.0  0.58763  0.47588  0.58041  1.0000
  H   H2278     1.0  0.61820  0.06949  0.65442  1.0000
  C   C1281     1.0  0.74560  0.39078  0.53314  1.0000
  C   C1282     1.0  0.73115  0.37366  0.52727  1.0000
  C   C1283     1.0  0.73383  0.35503  0.51025  1.0000
  C   C1284     1.0  0.75769  0.04649  0.62545  1.0000
  H   H2279     1.0  0.67118  0.32192  0.61967  1.0000
  H   H2280     1.0  0.71776  0.37528  0.53550  1.0000
  H   H2281     1.0  0.72249  0.34211  0.50572  1.0000
  C   C1285     1.0  0.72387  0.32398  0.64384  1.0000
  H   H2282     1.0  0.74654  0.04372  0.63774  1.0000
  H   H2283     1.0  0.73729  0.24372  0.58244  1.0000
  C   C1286     1.0  0.71687  0.26762  0.63792  1.0000
  C   C1287     1.0  0.70779  0.28784  0.62557  1.0000
  C   C1288     1.0  0.71132  0.31596  0.62846  1.0000
  H   H2284     1.0  0.69825  0.28163  0.61348  1.0000
  H   H2285     1.0  0.70460  0.33137  0.61857  1.0000
  C   C1289     1.0  0.71038  0.07188  0.65398  1.0000
  C   C1290     1.0  0.70676  0.07898  0.63286  1.0000
  C   C1291     1.0  0.70378  0.05823  0.61776  1.0000
  C   C1292     1.0  0.70414  0.03015  0.62359  1.0000
  C   C1293     1.0  0.70712  0.02310  0.64488  1.0000
  H   H2286     1.0  0.66294  0.34425  0.58453  1.0000
  H   H2287     1.0  0.70700  0.10039  0.62799  1.0000
  H   H2288     1.0  0.70159  0.06397  0.60133  1.0000
  N   N72       1.0  0.76112  0.99605  0.61170  1.0000
  C   C1294     1.0  0.60533  0.18213  0.62578  1.0000
  C   C1295     1.0  0.62482  0.18229  0.62267  1.0000
  C   C1296     1.0  0.63678  0.18255  0.64020  1.0000
  H   H2289     1.0  0.65809  0.28083  0.62723  1.0000
  H   H2290     1.0  0.56288  0.26677  0.54198  1.0000
  C   C1297     1.0  0.59796  0.18278  0.64651  1.0000
  H   H2291     1.0  0.63067  0.18172  0.60669  1.0000
  H   H2292     1.0  0.65177  0.18234  0.63770  1.0000
  H   H2293     1.0  0.58311  0.18296  0.64924  1.0000
  C   C1298     1.0  0.75006  0.98679  0.63107  1.0000
  C   C1299     1.0  0.60693  0.39885  0.63781  1.0000
  C   C1300     1.0  0.61871  0.40184  0.61976  1.0000
  C   C1301     1.0  0.63739  0.40926  0.62192  1.0000
  C   C1302     1.0  0.64392  0.41482  0.64219  1.0000
  C   C1303     1.0  0.52043  0.05276  0.63279  1.0000
  H   H2294     1.0  0.59279  0.39212  0.63600  1.0000
  H   H2295     1.0  0.61344  0.39799  0.60410  1.0000
  H   H2296     1.0  0.65797  0.42139  0.64417  1.0000
  C   C1304     1.0  0.56539  0.05653  0.60755  1.0000
  H   H2297     1.0  0.66540  0.08531  0.61107  1.0000
  C   C1305     1.0  0.65996  0.33796  0.61859  1.0000
  C   C1306     1.0  0.66525  0.34774  0.66363  1.0000
  C   C1307     1.0  0.60720  0.99270  0.60434  1.0000
  Fe  Fe153     1.0  0.70930  0.20303  0.65874  1.0000
  H   H2298     1.0  0.56563  0.22621  0.65580  1.0000
  C   C1308     1.0  0.75590  0.07628  0.61751  1.0000
  H   H2299     1.0  0.65166  0.12822  0.64460  1.0000
  H   H2300     1.0  0.67100  0.05926  0.65343  1.0000
  C   C1309     1.0  0.73248  0.30379  0.65666  1.0000
  H   H2301     1.0  0.53440  0.10599  0.40528  1.0000
  C   C1310     1.0  0.51836  0.26822  0.64482  1.0000
  C   C1311     1.0  0.52276  0.10458  0.41717  1.0000
  H   H2302     1.0  0.66080  0.14843  0.60915  1.0000
  H   H2303     1.0  0.52461  0.25887  0.61220  1.0000
  C   C1312     1.0  0.52677  0.14250  0.48147  1.0000
  C   C1313     1.0  0.74739  0.33012  0.58037  1.0000
  H   H2304     1.0  0.73486  0.98865  0.62783  1.0000
  C   C1314     1.0  0.62651  0.08365  0.64418  1.0000
  H   H2305     1.0  0.64658  0.26518  0.59561  1.0000
  H   H2306     1.0  0.71836  0.31493  0.53906  1.0000
  C   C1315     1.0  0.52121  0.00689  0.64955  1.0000
  H   H2307     1.0  0.58672  0.03875  0.62761  1.0000
  H   H2308     1.0  0.62457  0.46764  0.63926  1.0000
  C   C1316     1.0  0.65786  0.10457  0.61591  1.0000
  S   S305      1.0  0.75373  0.32828  0.47821  1.0000
  C   C1317     1.0  0.65209  0.33751  0.59620  1.0000
  C   C1318     1.0  0.71697  0.44910  0.51055  1.0000
  H   H2309     1.0  0.52226  0.18028  0.45316  1.0000
  N   N73       1.0  0.74614  0.30113  0.57178  1.0000
  C   C1319     1.0  0.57374  0.98742  0.65263  1.0000
  H   H2310     1.0  0.55615  0.26070  0.65963  1.0000
  C   C1320     1.0  0.51642  0.28925  0.65991  1.0000
  H   H2311     1.0  0.54598  0.16645  0.52842  1.0000
  C   C1321     1.0  0.75058  0.40773  0.44820  1.0000
  H   H2312     1.0  0.71531  0.33711  0.56176  1.0000
  C   C1322     1.0  0.61374  0.40364  0.65812  1.0000
  H   H2313     1.0  0.59812  0.35292  0.60613  1.0000
  H   H2314     1.0  0.61440  0.23523  0.57492  1.0000
  S   S306      1.0  0.53202  0.10016  0.65305  1.0000
  H   H2315     1.0  0.75550  0.39054  0.45875  1.0000
  H   H2316     1.0  0.70731  0.00165  0.64972  1.0000
  H   H2317     1.0  0.75288  0.27849  0.54293  1.0000
  C   C1323     1.0  0.76206  0.23133  0.59855  1.0000
  Fe  Fe154     1.0  0.52134  0.16948  0.58872  1.0000
  H   H2318     1.0  0.76007  0.20930  0.59471  1.0000
  C   C1324     1.0  0.52821  0.16087  0.50137  1.0000
  C   C1325     1.0  0.64740  0.03336  0.66170  1.0000
  H   H2319     1.0  0.52989  0.18270  0.49652  1.0000
  H   H2320     1.0  0.68271  0.12943  0.61159  1.0000
  C   C1326     1.0  0.71397  0.31573  0.55604  1.0000
  H   H2321     1.0  0.60594  0.99588  0.63826  1.0000
  C   C1327     1.0  0.65706  0.10718  0.64050  1.0000
  N   N74       1.0  0.64611  0.08554  0.65237  1.0000
  H   H2322     1.0  0.57501  0.05604  0.59348  1.0000
  C   C1328     1.0  0.51978  0.31678  0.65418  1.0000
  C   C1329     1.0  0.61505  0.11116  0.64327  1.0000
  H   H2323     1.0  0.54408  0.13114  0.52041  1.0000
  C   C1330     1.0  0.54525  0.15266  0.51444  1.0000
  H   H2324     1.0  0.70545  0.45929  0.50165  1.0000
  C   C1331     1.0  0.58225  0.46289  0.59369  1.0000
  H   H2325     1.0  0.59654  0.24721  0.64490  1.0000
  H   H2326     1.0  0.75678  0.16724  0.40448  1.0000
  N   N75       1.0  0.57833  0.98302  0.62932  1.0000
  C   C1332     1.0  0.75405  0.28056  0.58759  1.0000
  H   H2327     1.0  0.74236  0.30984  0.66841  1.0000
  C   C1333     1.0  0.52726  0.06447  0.65124  1.0000
  C   C1334     1.0  0.66165  0.24742  0.64896  1.0000
  H   H2328     1.0  0.53915  0.14727  0.47123  1.0000
  C   C1335     1.0  0.52504  0.32343  0.63326  1.0000
  C   C1336     1.0  0.65353  0.27590  0.64371  1.0000
  N   N76       1.0  0.74949  0.43450  0.46042  1.0000
  H   H2329     1.0  0.66255  0.00258  0.64226  1.0000
  H   H2330     1.0  0.63582  0.35301  0.63633  1.0000
  H   H2331     1.0  0.74598  0.37093  0.41513  1.0000
  H   H2332     1.0  0.75848  0.24488  0.56631  1.0000
  H   H2333     1.0  0.63483  0.31801  0.62982  1.0000
  H   H2334     1.0  0.58749  0.12657  0.63450  1.0000
  H   H2335     1.0  0.64143  0.22926  0.60024  1.0000
  H   H2336     1.0  0.56352  0.03972  0.63907  1.0000
  C   C1337     1.0  0.72892  0.27569  0.65381  1.0000
  H   H2337     1.0  0.65742  0.23248  0.63682  1.0000
  H   H2338     1.0  0.59643  0.09867  0.61830  1.0000
  C   C1338     1.0  0.69323  0.30896  0.55735  1.0000
  H   H2339     1.0  0.57951  0.00718  0.65811  1.0000
  C   C1339     1.0  0.65600  0.05797  0.64936  1.0000
  H   H2340     1.0  0.66641  0.35833  0.62081  1.0000
  H   H2341     1.0  0.53906  0.12265  0.44140  1.0000
  H   H2342     1.0  0.73501  0.33516  0.59082  1.0000
  H   H2343     1.0  0.63985  0.35193  0.59495  1.0000
  H   H2344     1.0  0.74644  0.44062  0.50762  1.0000
  H   H2345     1.0  0.51751  0.06573  0.61915  1.0000
  C   C1340     1.0  0.73381  0.43230  0.47688  1.0000
  H   H2346     1.0  0.63345  0.02871  0.65540  1.0000
  C   C1341     1.0  0.60984  0.18299  0.66396  1.0000
  H   H2347     1.0  0.57202  0.00435  0.59970  1.0000
  H   H2348     1.0  0.51584  0.15916  0.51210  1.0000
  C   C1342     1.0  0.73214  0.39860  0.43797  1.0000
  C   C1343     1.0  0.73523  0.44949  0.49752  1.0000
  H   H2349     1.0  0.60857  0.45881  0.60910  1.0000
  H   H2350     1.0  0.55302  0.00270  0.61780  1.0000
  H   H2351     1.0  0.71873  0.46031  0.52569  1.0000
  C   C1344     1.0  0.73470  0.37044  0.42749  1.0000
  H   H2352     1.0  0.65532  0.46513  0.61987  1.0000
  C   C1345     1.0  0.59417  0.46602  0.61336  1.0000
  H   H2353     1.0  0.72012  0.43752  0.46955  1.0000
  H   H2354     1.0  0.73273  0.41056  0.48267  1.0000
  C   C1346     1.0  0.66823  0.12859  0.60566  1.0000
  H   H2355     1.0  0.62191  0.12620  0.63257  1.0000
  H   H2356     1.0  0.74930  0.31419  0.53900  1.0000
  C   C1347     1.0  0.62928  0.18265  0.66092  1.0000
  H   H2357     1.0  0.65961  0.36885  0.66031  1.0000
  C   C1348     1.0  0.72575  0.29478  0.56924  1.0000
  H   H2358     1.0  0.62666  0.07423  0.62809  1.0000
  H   H2359     1.0  0.61336  0.12041  0.65929  1.0000
  H   H2360     1.0  0.72773  0.41336  0.42539  1.0000
  H   H2361     1.0  0.72061  0.39687  0.44992  1.0000
  C   C1349     1.0  0.74558  0.45753  0.44476  1.0000
  H   H2362     1.0  0.52471  0.14662  0.42657  1.0000
  C   C1350     1.0  0.52358  0.27489  0.62395  1.0000
  H   H2363     1.0  0.53085  0.30743  0.60193  1.0000
  C   C1351     1.0  0.52692  0.30239  0.61816  1.0000
  N   N77       1.0  0.65122  0.32640  0.65775  1.0000
  H   H2364     1.0  0.75461  0.00714  0.56552  1.0000
  H   H2365     1.0  0.65617  0.05202  0.63232  1.0000
  H   H2366     1.0  0.56515  0.07757  0.61439  1.0000
  C   C1352     1.0  0.66055  0.29810  0.65909  1.0000
  H   H2367     1.0  0.68805  0.30971  0.57411  1.0000
  H   H2368     1.0  0.67183  0.10679  0.64571  1.0000
  C   C1353     1.0  0.63222  0.41185  0.66021  1.0000
  H   H2369     1.0  0.71315  0.42758  0.51452  1.0000
  H   H2370     1.0  0.63529  0.00052  0.61547  1.0000
  H   H2371     1.0  0.53909  0.26754  0.55186  1.0000
  H   H2372     1.0  0.58537  0.28073  0.64696  1.0000
  C   C1354     1.0  0.57178  0.03548  0.62426  1.0000
  C   C1355     1.0  0.56844  0.00557  0.61690  1.0000
  H   H2373     1.0  0.72154  0.36466  0.41980  1.0000
  H   H2374     1.0  0.74705  0.28376  0.60344  1.0000
  H   H2375     1.0  0.55100  0.05223  0.60237  1.0000
  C   C1356     1.0  0.59550  0.10668  0.63479  1.0000
  H   H2376     1.0  0.73822  0.35442  0.43954  1.0000
  C   C1357     1.0  0.75542  0.02570  0.60707  1.0000
  H   H2377     1.0  0.68509  0.32433  0.54792  1.0000
  H   H2378     1.0  0.74051  0.02710  0.60223  1.0000
  H   H2379     1.0  0.55836  0.98924  0.65519  1.0000
  C   C1358     1.0  0.51744  0.02414  0.63198  1.0000
  H   H2380     1.0  0.52276  0.34470  0.57313  1.0000
  H   H2381     1.0  0.72417  0.27452  0.56139  1.0000
  H   H2382     1.0  0.66897  0.12591  0.58814  1.0000
  H   H2383     1.0  0.55328  0.23664  0.55497  1.0000
  S   S307      1.0  0.52865  0.35787  0.62544  1.0000
  N   N78       1.0  0.58771  0.26813  0.60230  1.0000
  C   C1359     1.0  0.57972  0.25908  0.58147  1.0000
  C   C1360     1.0  0.60753  0.25689  0.60461  1.0000
  C   C1361     1.0  0.57575  0.25607  0.62001  1.0000
  C   C1362     1.0  0.58698  0.29906  0.60460  1.0000
  C   C1363     1.0  0.59715  0.31572  0.58703  1.0000
  C   C1364     1.0  0.55975  0.27003  0.57649  1.0000
  C   C1365     1.0  0.58316  0.25891  0.64294  1.0000
  C   C1366     1.0  0.61961  0.25302  0.58397  1.0000
  C   C1367     1.0  0.64010  0.24677  0.58887  1.0000
  C   C1368     1.0  0.59362  0.34663  0.59013  1.0000
  C   C1369     1.0  0.55344  0.25955  0.55500  1.0000
  C   C1370     1.0  0.52505  0.12612  0.43449  1.0000
  H   H2384     1.0  0.57969  0.23608  0.58087  1.0000
  H   H2385     1.0  0.58854  0.26550  0.56772  1.0000
  H   H2386     1.0  0.61533  0.26969  0.61586  1.0000
  H   H2387     1.0  0.60742  0.23593  0.61187  1.0000
  H   H2388     1.0  0.57371  0.23367  0.61731  1.0000
  H   H2389     1.0  0.56155  0.26576  0.62018  1.0000
  H   H2390     1.0  0.57222  0.30684  0.60597  1.0000
  H   H2391     1.0  0.59337  0.30520  0.61973  1.0000
  H   H2392     1.0  0.59236  0.31045  0.57095  1.0000
  H   H2393     1.0  0.61245  0.31189  0.58791  1.0000
  H   H2394     1.0  0.54954  0.26296  0.58859  1.0000
  H   H2395     1.0  0.55917  0.29289  0.57583  1.0000
  H   H2396     1.0  0.74693  0.34552  0.56713  1.0000
  S   S308      1.0  0.51596  0.41526  0.66969  1.0000
  C   C1371     1.0  0.75097  0.35311  0.49890  1.0000
  H   H2397     1.0  0.67590  0.29925  0.65586  1.0000
  H   H2398     1.0  0.73182  0.45484  0.43730  1.0000
  H   H2399     1.0  0.52291  0.08343  0.42407  1.0000
  H   H2400     1.0  0.58849  0.45211  0.62580  1.0000
  H   H2401     1.0  0.61296  0.31135  0.65341  1.0000
  C   C1372     1.0  0.75555  0.29885  0.55016  1.0000
  C   C1373     1.0  0.71042  0.04382  0.65990  1.0000
  H   H2402     1.0  0.58275  0.44102  0.58856  1.0000
  H   H2403     1.0  0.51795  0.22469  0.55505  1.0000
  H   H2404     1.0  0.75249  0.00028  0.64488  1.0000
  H   H2405     1.0  0.60413  0.01502  0.60199  1.0000
  H   H2406     1.0  0.59615  0.46468  0.65771  1.0000
  C   C1374     1.0  0.65969  0.00732  0.65930  1.0000
  H   H2407     1.0  0.73861  0.47125  0.49436  1.0000
  H   H2408     1.0  0.52907  0.12063  0.48643  1.0000
  H   H2409     1.0  0.75606  0.23519  0.61474  1.0000
  H   H2410     1.0  0.73608  0.26021  0.66331  1.0000
  C   C1375     1.0  0.75219  0.24963  0.58215  1.0000
  C   C1376     1.0  0.52777  0.01867  0.66812  1.0000
  H   H2411     1.0  0.58770  0.09209  0.64515  1.0000
  H   H2412     1.0  0.63815  0.27447  0.64405  1.0000
  S   S309      1.0  0.51390  0.23392  0.65236  1.0000
  H   H2413     1.0  0.67714  0.24781  0.64881  1.0000
  C   C1377     1.0  0.51482  0.34149  0.55838  1.0000
  H   H2414     1.0  0.75592  0.45670  0.43125  1.0000
  H   H2415     1.0  0.75267  0.37434  0.60729  1.0000
  H   H2416     1.0  0.75851  0.42254  0.35856  1.0000
  Fe  Fe155     1.0  0.53916  0.44594  0.66788  1.0000
  H   H2417     1.0  0.75606  0.09053  0.63125  1.0000
  C   C1378     1.0  0.59936  0.98271  0.62620  1.0000
  H   H2418     1.0  0.67317  0.00995  0.66740  1.0000
  C   C1379     1.0  0.53080  0.04727  0.66891  1.0000
  H   H2419     1.0  0.65255  0.98949  0.66675  1.0000
  H   H2420     1.0  0.76098  0.40887  0.43486  1.0000
  Fe  Fe156     1.0  0.52958  0.39852  0.69923  1.0000
  H   H2421     1.0  0.51998  0.30496  0.76070  1.0000
  C   C1380     1.0  0.63488  0.32880  0.67330  1.0000
  S   S310      1.0  0.55168  0.43055  0.69823  1.0000
  H   H2422     1.0  0.53421  0.12749  0.97587  1.0000
  H   H2423     1.0  0.54336  0.99756  0.95255  1.0000
  C   C1381     1.0  0.52232  0.05940  0.97026  1.0000
  H   H2424     1.0  0.60651  0.31529  0.70177  1.0000
  Fe  Fe157     1.0  0.71076  0.19232  0.70644  1.0000
  H   H2425     1.0  0.52313  0.15010  0.90517  1.0000
  S   S311      1.0  0.71688  0.20660  0.74032  1.0000
  H   H2426     1.0  0.63446  0.08085  0.68433  1.0000
  C   C1382     1.0  0.74762  0.34223  0.77552  1.0000
  C   C1383     1.0  0.75116  0.23290  0.74168  1.0000
  S   S312      1.0  0.69210  0.15580  0.70352  1.0000
  S   S313      1.0  0.69193  0.21890  0.68625  1.0000
  C   C1384     1.0  0.76208  0.25640  0.77343  1.0000
  H   H2427     1.0  0.56969  0.11573  0.99736  1.0000
  H   H2428     1.0  0.53667  0.11828  0.90367  1.0000
  H   H2429     1.0  0.70954  0.26386  0.71421  1.0000
  H   H2430     1.0  0.73413  0.09913  0.98862  1.0000
  H   H2431     1.0  0.73655  0.21353  0.95265  1.0000
  H   H2432     1.0  0.71322  0.03807  0.67621  1.0000
  H   H2433     1.0  0.55892  0.09993  0.95201  1.0000
  C   C1385     1.0  0.73000  0.15805  0.95448  1.0000
  H   H2434     1.0  0.52290  0.20561  0.72380  1.0000
  S   S314      1.0  0.75833  0.12408  0.89115  1.0000
  Fe  Fe158     1.0  0.67504  0.18135  0.68093  1.0000
  H   H2435     1.0  0.53626  0.34010  0.83248  1.0000
  H   H2436     1.0  0.75704  0.16851  0.74103  1.0000
  C   C1386     1.0  0.70369  0.28481  0.71071  1.0000
  H   H2437     1.0  0.70686  0.29020  0.69385  1.0000
  H   H2438     1.0  0.51328  0.40787  0.77926  1.0000
  H   H2439     1.0  0.67394  0.10571  0.68056  1.0000
  H   H2440     1.0  0.75856  0.20970  0.93986  1.0000
  C   C1387     1.0  0.74538  0.24988  0.78398  1.0000
  C   C1388     1.0  0.73168  0.23493  0.77347  1.0000
  C   C1389     1.0  0.73444  0.22635  0.75227  1.0000
  C   C1390     1.0  0.73595  0.39255  0.70010  1.0000
  H   H2441     1.0  0.74818  0.34946  0.80947  1.0000
  H   H2442     1.0  0.74294  0.25663  0.80017  1.0000
  H   H2443     1.0  0.71883  0.22991  0.78185  1.0000
  C   C1391     1.0  0.74037  0.33684  0.79813  1.0000
  H   H2444     1.0  0.51295  0.43416  0.82935  1.0000
  H   H2445     1.0  0.60391  0.18313  0.67993  1.0000
  H   H2446     1.0  0.72179  0.15824  0.96963  1.0000
  H   H2447     1.0  0.59618  0.33735  0.68164  1.0000
  H   H2448     1.0  0.74569  0.19908  0.80694  1.0000
  H   H2449     1.0  0.63941  0.32412  0.68977  1.0000
  H   H2450     1.0  0.62930  0.35049  0.67354  1.0000
  H   H2451     1.0  0.72924  0.21543  0.90029  1.0000
  H   H2452     1.0  0.74204  0.26330  0.93952  1.0000
  H   H2453     1.0  0.66955  0.07051  0.68794  1.0000
  C   C1392     1.0  0.52355  0.12804  0.91007  1.0000
  Fe  Fe159     1.0  0.56874  0.40166  0.67763  1.0000
  H   H2454     1.0  0.54849  0.04771  0.95258  1.0000
  H   H2455     1.0  0.72433  0.17450  0.94392  1.0000
  C   C1393     1.0  0.60198  0.31636  0.68499  1.0000
  H   H2456     1.0  0.52103  0.00245  0.96594  1.0000
  C   C1394     1.0  0.52766  0.33342  0.86495  1.0000
  C   C1395     1.0  0.57069  0.11730  0.97974  1.0000
  H   H2457     1.0  0.65486  0.12201  0.71178  1.0000
  C   C1396     1.0  0.52604  0.40705  0.78901  1.0000
  H   H2458     1.0  0.71142  0.12811  0.94131  1.0000
  H   H2459     1.0  0.54144  0.38092  0.76627  1.0000
  H   H2460     1.0  0.51241  0.28427  0.67608  1.0000
  H   H2461     1.0  0.53610  0.09977  0.99411  1.0000
  C   C1397     1.0  0.53410  0.04042  0.95511  1.0000
  C   C1398     1.0  0.68825  0.36588  0.68995  1.0000
  S   S315      1.0  0.72948  0.17828  0.67902  1.0000
  C   C1399     1.0  0.52265  0.12585  0.93433  1.0000
  H   H2462     1.0  0.70078  0.35696  0.68162  1.0000
  H   H2463     1.0  0.65043  0.08654  0.71919  1.0000
  H   H2464     1.0  0.73073  0.19787  0.98745  1.0000
  C   C1400     1.0  0.52237  0.09521  0.94169  1.0000
  H   H2465     1.0  0.75927  0.13715  0.79704  1.0000
  H   H2466     1.0  0.75793  0.28359  0.95445  1.0000
  H   H2467     1.0  0.74257  0.16777  0.99671  1.0000
  H   H2468     1.0  0.53929  0.36901  0.84964  1.0000
  H   H2469     1.0  0.55525  0.21589  0.71169  1.0000
  S   S316      1.0  0.71624  0.09689  0.67315  1.0000
  S   S317      1.0  0.59999  0.39816  0.68126  1.0000
  H   H2470     1.0  0.59067  0.30139  0.68297  1.0000
  C   C1401     1.0  0.74973  0.18392  0.81945  1.0000
  H   H2471     1.0  0.69126  0.36766  0.70710  1.0000
  C   C1402     1.0  0.51849  0.47171  0.74045  1.0000
  C   C1403     1.0  0.75854  0.21856  0.89251  1.0000
  H   H2472     1.0  0.54233  0.01034  0.97941  1.0000
  N   N79       1.0  0.74334  0.32715  0.73630  1.0000
  C   C1404     1.0  0.53667  0.10475  0.97682  1.0000
  H   H2473     1.0  0.53897  0.38014  0.81201  1.0000
  C   C1405     1.0  0.72661  0.13046  0.94379  1.0000
  C   C1406     1.0  0.59056  0.47921  0.69901  1.0000
  C   C1407     1.0  0.66039  0.10042  0.71093  1.0000
  H   H2474     1.0  0.68828  0.28430  0.71303  1.0000
  H   H2475     1.0  0.64581  0.03767  0.67893  1.0000
  H   H2476     1.0  0.73393  0.12933  0.92813  1.0000
  S   S318      1.0  0.64347  0.18182  0.68352  1.0000
  H   H2477     1.0  0.71665  0.20116  0.84044  1.0000
  C   C1408     1.0  0.52817  0.22671  0.72594  1.0000
  H   H2478     1.0  0.59178  0.45652  0.69687  1.0000
  H   H2479     1.0  0.67390  0.09924  0.71932  1.0000
  C   C1409     1.0  0.75118  0.16194  0.95824  1.0000
  H   H2480     1.0  0.54953  0.25233  0.71109  1.0000
  S   S319      1.0  0.75680  0.25491  0.89036  1.0000
  H   H2481     1.0  0.74548  0.36455  0.77225  1.0000
  H   H2482     1.0  0.51776  0.31674  0.86179  1.0000
  H   H2483     1.0  0.52052  0.36481  0.79811  1.0000
  H   H2484     1.0  0.73172  0.11303  0.95374  1.0000
  H   H2485     1.0  0.54146  0.32387  0.86874  1.0000
  H   H2486     1.0  0.51425  0.44437  0.88750  1.0000
  H   H2487     1.0  0.73724  0.30655  0.70676  1.0000
  H   H2488     1.0  0.72528  0.34250  0.79971  1.0000
  H   H2489     1.0  0.53166  0.45021  0.86697  1.0000
  H   H2490     1.0  0.65941  0.28978  0.67562  1.0000
  H   H2491     1.0  0.52762  0.34258  0.73513  1.0000
  H   H2492     1.0  0.54319  0.46937  0.98781  1.0000
  H   H2493     1.0  0.53505  0.13628  0.94046  1.0000
  H   H2494     1.0  0.72788  0.23126  0.82932  1.0000
  H   H2495     1.0  0.57533  0.24824  0.67545  1.0000
  H   H2496     1.0  0.53597  0.05615  0.68331  1.0000
  H   H2497     1.0  0.72208  0.33022  0.76137  1.0000
  H   H2498     1.0  0.55600  0.40225  0.78228  1.0000
  H   H2499     1.0  0.53061  0.00573  0.68181  1.0000
  H   H2500     1.0  0.70708  0.30039  0.74199  1.0000
  H   H2501     1.0  0.53368  0.41568  0.83573  1.0000
  H   H2502     1.0  0.75358  0.22625  0.72546  1.0000
  C   C1410     1.0  0.55700  0.09793  0.96947  1.0000
  H   H2503     1.0  0.75811  0.16100  0.94229  1.0000
  H   H2504     1.0  0.68532  0.38694  0.68355  1.0000
  H   H2505     1.0  0.53842  0.22910  0.69309  1.0000
  H   H2506     1.0  0.74623  0.37131  0.73795  1.0000
  H   H2507     1.0  0.53496  0.08530  0.93425  1.0000
  C   C1411     1.0  0.72851  0.21530  0.84203  1.0000
  H   H2508     1.0  0.73910  0.16748  0.81912  1.0000
  H   H2509     1.0  0.63958  0.11515  0.67717  1.0000
  C   C1412     1.0  0.73825  0.35601  0.72897  1.0000
  C   C1413     1.0  0.64490  0.09347  0.67553  1.0000
  C   C1414     1.0  0.52964  0.35238  0.84558  1.0000
  C   C1415     1.0  0.73715  0.32446  0.75933  1.0000
  C   C1416     1.0  0.51691  0.44450  0.87004  1.0000
  C   C1417     1.0  0.54258  0.40145  0.77376  1.0000
  H   H2510     1.0  0.74402  0.40727  0.70952  1.0000
  C   C1418     1.0  0.71182  0.30595  0.72563  1.0000
  H   H2511     1.0  0.66006  0.35562  0.69760  1.0000
  C   C1419     1.0  0.74494  0.18897  0.99046  1.0000
  H   H2512     1.0  0.52254  0.34536  0.87899  1.0000
  C   C1420     1.0  0.75666  0.24080  0.96470  1.0000
  H   H2513     1.0  0.74635  0.24679  0.97737  1.0000
  C   C1421     1.0  0.52453  0.38410  0.80629  1.0000
  C   C1422     1.0  0.51815  0.41465  0.83689  1.0000
  H   H2514     1.0  0.67544  0.32624  0.69233  1.0000
  H   H2515     1.0  0.72081  0.39602  0.70349  1.0000
  H   H2516     1.0  0.72962  0.16451  0.90054  1.0000
  C   C1423     1.0  0.53526  0.01093  0.96384  1.0000
  C   C1424     1.0  0.74231  0.20417  0.89767  1.0000
  H   H2517     1.0  0.75710  0.36105  0.70137  1.0000
  H   H2518     1.0  0.72707  0.22587  0.85760  1.0000
  C   C1425     1.0  0.51525  0.34432  0.74526  1.0000
  C   C1426     1.0  0.67151  0.34743  0.68706  1.0000
  Fe  Fe160     1.0  0.70932  0.14333  0.67467  1.0000
  S   S320      1.0  0.54816  0.36756  0.68182  1.0000
  H   H2519     1.0  0.52737  0.03952  0.93936  1.0000
  N   N80       1.0  0.52154  0.09006  0.96542  1.0000
  C   C1427     1.0  0.74196  0.36279  0.70524  1.0000
  H   H2520     1.0  0.63757  0.41579  0.67584  1.0000
  H   H2521     1.0  0.73413  0.34907  0.69481  1.0000
  C   C1428     1.0  0.73345  0.30550  0.72391  1.0000
  H   H2522     1.0  0.73823  0.28463  0.72930  1.0000
  H   H2523     1.0  0.72330  0.36101  0.73272  1.0000
  C   C1429     1.0  0.54378  0.23141  0.70943  1.0000
  C   C1430     1.0  0.74256  0.17525  0.89809  1.0000
  H   H2524     1.0  0.53440  0.22767  0.74196  1.0000
  H   H2525     1.0  0.70590  0.32650  0.72142  1.0000
  H   H2526     1.0  0.74412  0.17318  0.77704  1.0000
  C   C1431     1.0  0.66350  0.09177  0.68779  1.0000
  H   H2527     1.0  0.62271  0.28779  0.67298  1.0000
  H   H2528     1.0  0.75634  0.14329  0.96704  1.0000
  H   H2529     1.0  0.52179  0.40072  0.86999  1.0000
  H   H2530     1.0  0.73856  0.30254  0.76460  1.0000
  H   H2531     1.0  0.58857  0.99201  0.69385  1.0000
  H   H2532     1.0  0.51746  0.26822  0.73114  1.0000
  H   H2533     1.0  0.74246  0.31472  0.80238  1.0000
  C   C1432     1.0  0.74713  0.19920  0.84090  1.0000
  H   H2534     1.0  0.52711  0.05551  0.98678  1.0000
  C   C1433     1.0  0.51318  0.41601  0.86105  1.0000
  H   H2535     1.0  0.52785  0.42758  0.79623  1.0000
  H   H2536     1.0  0.54267  0.41731  0.76092  1.0000
  H   H2537     1.0  0.52799  0.45624  0.73267  1.0000
  N   N81       1.0  0.75634  0.18780  0.96988  1.0000
  H   H2538     1.0  0.73867  0.39693  0.68296  1.0000
  H   H2539     1.0  0.75849  0.21393  0.84343  1.0000
  H   H2540     1.0  0.56097  0.07666  0.97450  1.0000
  C   C1434     1.0  0.75960  0.17162  0.77519  1.0000
  H   H2541     1.0  0.74696  0.18403  0.85413  1.0000
  C   C1435     1.0  0.75926  0.16024  0.89454  1.0000
  H   H2542     1.0  0.75858  0.13574  0.75461  1.0000
  C   C1436     1.0  0.75581  0.26301  0.94739  1.0000
  C   C1437     1.0  0.75176  0.21227  0.95584  1.0000
  S   S321      1.0  0.76160  0.06455  0.93611  1.0000
  H   H2543     1.0  0.56776  0.13899  0.97479  1.0000
  H   H2544     1.0  0.58521  0.11161  0.97462  1.0000
  S   S322      1.0  0.76229  0.30839  0.84352  1.0000
  C   C1438     1.0  0.61833  0.30949  0.66974  1.0000
  Fe  Fe161     1.0  0.53657  0.93906  0.12608  1.0000
  C   C1439     1.0  0.63417  0.73265  0.12782  1.0000
  S   S323      1.0  0.51524  0.92026  0.05170  1.0000
  Fe  Fe162     1.0  0.55025  0.87970  0.11438  1.0000
  S   S324      1.0  0.56127  0.89507  0.08269  1.0000
  H   H2545     1.0  0.68023  0.59629  0.06409  1.0000
  Fe  Fe163     1.0  0.57242  0.93062  0.10089  1.0000
  S   S325      1.0  0.60229  0.94479  0.09686  1.0000
  Fe  Fe164     1.0  0.53456  0.92049  0.08029  1.0000
  S   S326      1.0  0.56280  0.91424  0.13246  1.0000
  Fe  Fe165     1.0  0.54312  0.69274  0.18749  1.0000
  S   S327      1.0  0.56118  0.68089  0.21519  1.0000
  Fe  Fe166     1.0  0.54233  0.63287  0.17252  1.0000
  S   S328      1.0  0.56010  0.61730  0.19899  1.0000
  C   C1440     1.0  0.54941  0.64473  0.09053  1.0000
  Fe  Fe167     1.0  0.54219  0.64484  0.22010  1.0000
  Fe  Fe168     1.0  0.57727  0.65425  0.19170  1.0000
  S   S329      1.0  0.60879  0.64900  0.19045  1.0000
  S   S330      1.0  0.56062  0.66856  0.16388  1.0000
  Fe  Fe169     1.0  0.68390  0.65972  0.10493  1.0000
  S   S331      1.0  0.69431  0.67067  0.13679  1.0000
  S   S332      1.0  0.65448  0.64337  0.10289  1.0000
  Fe  Fe170     1.0  0.72109  0.67395  0.08308  1.0000
  S   S333      1.0  0.73372  0.68640  0.11433  1.0000
  S   S334      1.0  0.73982  0.67509  0.05302  1.0000
  Fe  Fe171     1.0  0.72047  0.64784  0.12695  1.0000
  S   S335      1.0  0.73264  0.61784  0.15099  1.0000
  Fe  Fe172     1.0  0.70619  0.70860  0.12138  1.0000
  S   S336      1.0  0.69801  0.74608  0.14223  1.0000
  S   S337      1.0  0.70946  0.63445  0.09572  1.0000
  S   S338      1.0  0.69424  0.69873  0.08939  1.0000
  Fe  Fe173     1.0  0.71546  0.94730  0.20842  1.0000
  S   S339      1.0  0.73484  0.94107  0.18001  1.0000
  S   S340      1.0  0.72321  0.95060  0.24351  1.0000
  Fe  Fe174     1.0  0.68075  0.94733  0.18068  1.0000
  S   S341      1.0  0.69758  0.94191  0.15067  1.0000
  S   S342      1.0  0.64912  0.95065  0.18128  1.0000
  Fe  Fe175     1.0  0.71428  0.90980  0.16863  1.0000
  S   S343      1.0  0.72280  0.87173  0.14864  1.0000
  C   C1441     1.0  0.74659  0.53647  0.03994  1.0000
  C   C1442     1.0  0.58478  0.48505  0.19468  1.0000
  S   S344      1.0  0.69619  0.91353  0.19825  1.0000
  N   N82       1.0  0.66474  0.53934  0.11317  1.0000
  C   C1443     1.0  0.54524  0.68166  0.29788  1.0000
  H   H2546     1.0  0.72037  0.59126  0.25124  1.0000
  C   C1444     1.0  0.53967  0.55661  0.16933  1.0000
  H   H2547     1.0  0.71770  0.54983  0.03488  1.0000
  C   C1445     1.0  0.60895  0.73821  0.19318  1.0000
  H   H2548     1.0  0.62173  0.92658  0.21134  1.0000
  C   C1446     1.0  0.58012  0.84552  0.20532  1.0000
  C   C1447     1.0  0.63401  0.51831  0.09950  1.0000
  C   C1448     1.0  0.61725  0.73038  0.17108  1.0000
  H   H2549     1.0  0.61220  0.55190  0.14538  1.0000
  C   C1449     1.0  0.67839  0.49768  0.09109  1.0000
  C   C1450     1.0  0.73176  0.58236  0.14533  1.0000
  C   C1451     1.0  0.73389  0.56313  0.16190  1.0000
  C   C1452     1.0  0.73328  0.53472  0.15790  1.0000
  C   C1453     1.0  0.73107  0.52536  0.13716  1.0000
  C   C1454     1.0  0.72927  0.54452  0.12054  1.0000
  C   C1455     1.0  0.72941  0.57294  0.12461  1.0000
  N   N83       1.0  0.74874  0.59514  0.23918  1.0000
  H   H2550     1.0  0.73500  0.52005  0.17079  1.0000
  H   H2551     1.0  0.72769  0.53724  0.10453  1.0000
  H   H2552     1.0  0.72820  0.58748  0.11165  1.0000
  C   C1456     1.0  0.70688  0.77997  0.14467  1.0000
  C   C1457     1.0  0.70138  0.79577  0.16252  1.0000
  C   C1458     1.0  0.70657  0.82355  0.16441  1.0000
  C   C1459     1.0  0.71719  0.83607  0.14826  1.0000
  C   C1460     1.0  0.72320  0.81999  0.13074  1.0000
  C   C1461     1.0  0.71812  0.79214  0.12894  1.0000
  H   H2553     1.0  0.69322  0.78630  0.17510  1.0000
  H   H2554     1.0  0.70222  0.83537  0.17824  1.0000
  H   H2555     1.0  0.73164  0.82928  0.11827  1.0000
  H   H2556     1.0  0.72259  0.78029  0.11516  1.0000
  C   C1462     1.0  0.53407  0.55118  0.13185  1.0000
  H   H2557     1.0  0.74935  0.62861  0.30106  1.0000
  C   C1463     1.0  0.73213  0.62663  0.03143  1.0000
  C   C1464     1.0  0.74361  0.64944  0.03307  1.0000
  H   H2558     1.0  0.63788  0.49610  0.10110  1.0000
  H   H2559     1.0  0.53146  0.65399  0.31937  1.0000
  H   H2560     1.0  0.72040  0.62444  0.04237  1.0000
  C   C1465     1.0  0.55896  0.74567  0.08894  1.0000
  C   C1466     1.0  0.62076  0.64477  0.16577  1.0000
  C   C1467     1.0  0.61172  0.64841  0.14638  1.0000
  C   C1468     1.0  0.62206  0.64701  0.12709  1.0000
  C   C1469     1.0  0.64152  0.64243  0.12710  1.0000
  C   C1470     1.0  0.65038  0.63771  0.14644  1.0000
  C   C1471     1.0  0.64004  0.63882  0.16566  1.0000
  H   H2561     1.0  0.59687  0.65270  0.14619  1.0000
  H   H2562     1.0  0.61508  0.65035  0.11217  1.0000
  H   H2563     1.0  0.66523  0.63320  0.14663  1.0000
  H   H2564     1.0  0.64712  0.63564  0.18055  1.0000
  N   N84       1.0  0.58305  0.86840  0.18918  1.0000
  C   C1472     1.0  0.61531  0.94689  0.12031  1.0000
  C   C1473     1.0  0.60643  0.94762  0.14031  1.0000
  C   C1474     1.0  0.61697  0.94905  0.15882  1.0000
  C   C1475     1.0  0.63650  0.94999  0.15752  1.0000
  C   C1476     1.0  0.64542  0.95017  0.13751  1.0000
  C   C1477     1.0  0.63486  0.94853  0.11895  1.0000
  H   H2565     1.0  0.59141  0.94819  0.14158  1.0000
  H   H2566     1.0  0.60994  0.94989  0.17419  1.0000
  H   H2567     1.0  0.54138  0.56967  0.18292  1.0000
  C   C1478     1.0  0.59807  0.50311  0.03321  1.0000
  S   S345      1.0  0.55915  0.83466  0.12140  1.0000
  H   H2568     1.0  0.54177  0.51877  0.18750  1.0000
  H   H2569     1.0  0.63626  0.77325  0.16276  1.0000
  S   S346      1.0  0.53227  0.73717  0.18312  1.0000
  H   H2570     1.0  0.56704  0.51359  0.00778  1.0000
  H   H2571     1.0  0.53464  0.55141  0.27288  1.0000
  C   C1479     1.0  0.55481  0.76003  0.15117  1.0000
  C   C1480     1.0  0.56046  0.78198  0.13788  1.0000
  H   H2572     1.0  0.56229  0.74040  0.15064  1.0000
  H   H2573     1.0  0.57237  0.77907  0.12722  1.0000
  C   C1481     1.0  0.66732  0.54478  0.15414  1.0000
  H   H2574     1.0  0.61875  0.73069  0.12805  1.0000
  H   H2575     1.0  0.58207  0.75477  0.18277  1.0000
  C   C1482     1.0  0.64131  0.72035  0.10680  1.0000
  C   C1483     1.0  0.64300  0.71737  0.14707  1.0000
  C   C1484     1.0  0.73203  0.57783  0.24489  1.0000
  H   H2576     1.0  0.65768  0.50357  0.20661  1.0000
  H   H2577     1.0  0.58271  0.71792  0.18704  1.0000
  H   H2578     1.0  0.54330  0.51979  0.26052  1.0000
  H   H2579     1.0  0.66500  0.57768  0.13082  1.0000
  H   H2580     1.0  0.67126  0.52258  0.15517  1.0000
  H   H2581     1.0  0.66501  0.49482  0.08302  1.0000
  H   H2582     1.0  0.63873  0.69551  0.14644  1.0000
  H   H2583     1.0  0.69816  0.55043  0.09165  1.0000
  H   H2584     1.0  0.67441  0.58245  0.17062  1.0000
  H   H2585     1.0  0.55336  0.69193  0.31029  1.0000
  H   H2586     1.0  0.66322  0.96988  0.07249  1.0000
  H   H2587     1.0  0.53221  0.72869  0.08373  1.0000
  S   S347      1.0  0.52275  0.90291  0.11096  1.0000
  H   H2588     1.0  0.57779  0.65318  0.10145  1.0000
  C   C1485     1.0  0.73235  0.49653  0.27268  1.0000
  H   H2589     1.0  0.69353  0.55754  0.16768  1.0000
  H   H2590     1.0  0.61745  0.85635  0.16196  1.0000
  H   H2591     1.0  0.65682  0.72004  0.10588  1.0000
  H   H2592     1.0  0.75125  0.54495  0.02433  1.0000
  H   H2593     1.0  0.61105  0.74559  0.15978  1.0000
  C   C1486     1.0  0.67826  0.56012  0.17079  1.0000
  H   H2594     1.0  0.74401  0.57746  0.05183  1.0000
  C   C1487     1.0  0.73572  0.60678  0.01544  1.0000
  H   H2595     1.0  0.61154  0.70990  0.16693  1.0000
  H   H2596     1.0  0.72365  0.51586  0.02526  1.0000
  C   C1488     1.0  0.74369  0.61323  0.22028  1.0000
  H   H2597     1.0  0.59212  0.88740  0.22975  1.0000
  H   H2598     1.0  0.63757  0.75485  0.12789  1.0000
  H   H2599     1.0  0.60907  0.82844  0.17816  1.0000
  S   S348      1.0  0.52213  0.96626  0.15103  1.0000
  H   H2600     1.0  0.63641  0.69895  0.10517  1.0000
  N   N85       1.0  0.59402  0.53447  0.20717  1.0000
  C   C1489     1.0  0.59440  0.54073  0.18362  1.0000
  C   C1490     1.0  0.58364  0.50805  0.21174  1.0000
  C   C1491     1.0  0.58322  0.55767  0.21805  1.0000
  C   C1492     1.0  0.61336  0.53328  0.21632  1.0000
  C   C1493     1.0  0.62808  0.51447  0.20496  1.0000
  C   C1494     1.0  0.60400  0.56776  0.17653  1.0000
  C   C1495     1.0  0.58048  0.55460  0.24251  1.0000
  H   H2601     1.0  0.68673  0.55901  0.13025  1.0000
  C   C1496     1.0  0.58761  0.73791  0.19303  1.0000
  H   H2602     1.0  0.62413  0.49261  0.20635  1.0000
  C   C1497     1.0  0.60475  0.57011  0.15231  1.0000
  C   C1498     1.0  0.56760  0.57752  0.25125  1.0000
  H   H2603     1.0  0.57984  0.54172  0.17761  1.0000
  H   H2604     1.0  0.60157  0.52378  0.17466  1.0000
  C   C1499     1.0  0.61613  0.91228  0.22364  1.0000
  H   H2605     1.0  0.56835  0.51255  0.21390  1.0000
  H   H2606     1.0  0.56915  0.56023  0.21089  1.0000
  H   H2607     1.0  0.59032  0.57764  0.21566  1.0000
  H   H2608     1.0  0.61918  0.55436  0.21694  1.0000
  H   H2609     1.0  0.61276  0.52604  0.23314  1.0000
  H   H2610     1.0  0.62984  0.52017  0.18795  1.0000
  H   H2611     1.0  0.55405  0.66472  0.29089  1.0000
  H   H2612     1.0  0.59614  0.58623  0.18244  1.0000
  H   H2613     1.0  0.61854  0.56841  0.18226  1.0000
  H   H2614     1.0  0.59406  0.55616  0.25059  1.0000
  H   H2615     1.0  0.57425  0.53463  0.24697  1.0000
  C   C1500     1.0  0.53959  0.76365  0.16528  1.0000
  H   H2616     1.0  0.56298  0.89609  0.20485  1.0000
  C   C1501     1.0  0.75066  0.49067  0.24027  1.0000
  C   C1502     1.0  0.68748  0.56694  0.08916  1.0000
  H   H2617     1.0  0.58766  0.91888  0.21500  1.0000
  H   H2618     1.0  0.62005  0.81330  0.14207  1.0000
  H   H2619     1.0  0.66902  0.49722  0.12415  1.0000
  H   H2620     1.0  0.62653  0.89531  0.22633  1.0000
  H   H2621     1.0  0.59038  0.57158  0.14595  1.0000
  H   H2622     1.0  0.56603  0.57539  0.26878  1.0000
  H   H2623     1.0  0.57348  0.59808  0.24766  1.0000
  H   H2624     1.0  0.55355  0.57641  0.24417  1.0000
  H   H2625     1.0  0.57688  0.79390  0.22567  1.0000
  C   C1503     1.0  0.72418  0.56027  0.22665  1.0000
  C   C1504     1.0  0.70577  0.54714  0.23343  1.0000
  H   H2626     1.0  0.75436  0.51415  0.08538  1.0000
  H   H2627     1.0  0.72839  0.61825  0.22045  1.0000
  H   H2628     1.0  0.60238  0.83533  0.13013  1.0000
  H   H2629     1.0  0.73419  0.54330  0.22227  1.0000
  H   H2630     1.0  0.72134  0.57279  0.21223  1.0000
  H   H2631     1.0  0.70115  0.53324  0.22069  1.0000
  H   H2632     1.0  0.53855  0.67757  0.12756  1.0000
  H   H2633     1.0  0.61414  0.92392  0.23870  1.0000
  S   S349      1.0  0.69822  0.98118  0.19326  1.0000
  H   H2634     1.0  0.58188  0.74086  0.20942  1.0000
  S   S350      1.0  0.53595  0.63096  0.25437  1.0000
  H   H2635     1.0  0.54278  0.85974  0.19262  1.0000
  C   C1505     1.0  0.59746  0.90093  0.21680  1.0000
  H   H2636     1.0  0.72762  0.96587  0.28712  1.0000
  H   H2637     1.0  0.68999  0.51480  0.11910  1.0000
  H   H2638     1.0  0.70752  0.53472  0.24818  1.0000
  C   C1506     1.0  0.57371  0.60983  0.10391  1.0000
  H   H2639     1.0  0.57577  0.84459  0.16159  1.0000
  H   H2640     1.0  0.60793  0.54255  0.09898  1.0000
  C   C1507     1.0  0.55827  0.48326  0.04426  1.0000
  N   N86       1.0  0.53845  0.67157  0.09359  1.0000
  C   C1508     1.0  0.53722  0.51052  0.15445  1.0000
  H   H2641     1.0  0.57134  0.85331  0.21894  1.0000
  H   H2642     1.0  0.74092  0.92174  0.32264  1.0000
  H   H2643     1.0  0.57841  0.49228  0.17960  1.0000
  H   H2644     1.0  0.73601  0.57021  0.17786  1.0000
  H   H2645     1.0  0.53433  0.51944  0.28753  1.0000
  H   H2646     1.0  0.73544  0.56284  0.25779  1.0000
  C   C1509     1.0  0.52490  0.67433  0.07559  1.0000
  H   H2647     1.0  0.59360  0.83895  0.21256  1.0000
  C   C1510     1.0  0.51629  0.61460  0.26611  1.0000
  H   H2648     1.0  0.54006  0.62686  0.09281  1.0000
  H   H2649     1.0  0.66040  0.95186  0.13634  1.0000
  H   H2650     1.0  0.64147  0.52327  0.13170  1.0000
  H   H2651     1.0  0.60831  0.51521  0.11865  1.0000
  H   H2652     1.0  0.67509  0.55158  0.18683  1.0000
  C   C1511     1.0  0.61928  0.50078  0.03556  1.0000
  H   H2653     1.0  0.53615  0.91494  0.16969  1.0000
  H   H2654     1.0  0.63590  0.73282  0.09330  1.0000
  C   C1512     1.0  0.67564  0.51218  0.11293  1.0000
  C   C1513     1.0  0.74752  0.50899  0.28252  1.0000
  H   H2655     1.0  0.53106  0.60383  0.29465  1.0000
  S   S351      1.0  0.69910  0.48869  0.18080  1.0000
  H   H2656     1.0  0.52775  0.83060  0.15233  1.0000
  H   H2657     1.0  0.58818  0.49864  0.22704  1.0000
  H   H2658     1.0  0.60595  0.50707  0.09100  1.0000
  H   H2659     1.0  0.55844  0.78145  0.20934  1.0000
  C   C1514     1.0  0.59962  0.88507  0.19552  1.0000
  H   H2660     1.0  0.64182  0.94858  0.10353  1.0000
  H   H2661     1.0  0.75538  0.67609  0.19612  1.0000
  C   C1515     1.0  0.75008  0.55763  0.05762  1.0000
  S   S352      1.0  0.73100  0.48990  0.13156  1.0000
  H   H2662     1.0  0.69472  0.56325  0.23621  1.0000
  H   H2663     1.0  0.65224  0.54735  0.15842  1.0000
  C   C1516     1.0  0.57134  0.81857  0.19723  1.0000
  C   C1517     1.0  0.66748  0.55620  0.09311  1.0000
  C   C1518     1.0  0.52878  0.67102  0.11519  1.0000
  H   H2664     1.0  0.74130  0.55246  0.07181  1.0000
  C   C1519     1.0  0.61277  0.52103  0.10226  1.0000
  C   C1520     1.0  0.68997  0.57842  0.06662  1.0000
  H   H2665     1.0  0.65789  0.57471  0.09334  1.0000
  H   H2666     1.0  0.66366  0.54456  0.07884  1.0000
  H   H2667     1.0  0.63669  0.55527  0.11844  1.0000
  C   C1521     1.0  0.53642  0.56845  0.14935  1.0000
  H   H2668     1.0  0.61237  0.58886  0.14743  1.0000
  H   H2669     1.0  0.63742  0.52524  0.08312  1.0000
  H   H2670     1.0  0.68747  0.50988  0.08028  1.0000
  H   H2671     1.0  0.75390  0.51646  0.04280  1.0000
  H   H2672     1.0  0.59569  0.80655  0.14679  1.0000
  C   C1522     1.0  0.54766  0.87572  0.18127  1.0000
  H   H2673     1.0  0.69017  0.58386  0.10036  1.0000
  C   C1523     1.0  0.64408  0.53489  0.11665  1.0000
  H   H2674     1.0  0.52002  0.65963  0.29441  1.0000
  H   H2675     1.0  0.68736  0.56233  0.05465  1.0000
  N   N87       1.0  0.63831  0.72932  0.16873  1.0000
  C   C1524     1.0  0.64620  0.70982  0.18527  1.0000
  C   C1525     1.0  0.64623  0.75791  0.16975  1.0000
  C   C1526     1.0  0.65197  0.76837  0.19192  1.0000
  C   C1527     1.0  0.66716  0.70181  0.18229  1.0000
  C   C1528     1.0  0.65368  0.79968  0.19195  1.0000
  C   C1529     1.0  0.67517  0.68869  0.20238  1.0000
  H   H2676     1.0  0.63838  0.69028  0.18546  1.0000
  H   H2677     1.0  0.64407  0.71793  0.20156  1.0000
  H   H2678     1.0  0.65841  0.71701  0.14403  1.0000
  H   H2679     1.0  0.65912  0.75936  0.15954  1.0000
  H   H2680     1.0  0.66576  0.75911  0.19615  1.0000
  H   H2681     1.0  0.64195  0.76300  0.20479  1.0000
  H   H2682     1.0  0.66871  0.68634  0.16947  1.0000
  H   H2683     1.0  0.67561  0.71989  0.17781  1.0000
  H   H2684     1.0  0.61357  0.72336  0.20561  1.0000
  H   H2685     1.0  0.61281  0.75938  0.19746  1.0000
  H   H2686     1.0  0.66290  0.80663  0.17866  1.0000
  H   H2687     1.0  0.63966  0.80965  0.19039  1.0000
  H   H2688     1.0  0.65974  0.80632  0.20715  1.0000
  H   H2689     1.0  0.66710  0.67028  0.20715  1.0000
  H   H2690     1.0  0.68995  0.68211  0.19925  1.0000
  H   H2691     1.0  0.67481  0.70377  0.21560  1.0000
  N   N88       1.0  0.66368  0.86343  0.12213  1.0000
  C   C1530     1.0  0.67257  0.83843  0.11149  1.0000
  C   C1531     1.0  0.67588  0.88815  0.11856  1.0000
  C   C1532     1.0  0.66267  0.85754  0.14575  1.0000
  C   C1533     1.0  0.64400  0.86919  0.11485  1.0000
  C   C1534     1.0  0.64132  0.87460  0.09084  1.0000
  C   C1535     1.0  0.66308  0.81048  0.11577  1.0000
  C   C1536     1.0  0.65687  0.88219  0.16030  1.0000
  C   C1537     1.0  0.68638  0.89060  0.09680  1.0000
  C   C1538     1.0  0.69640  0.91800  0.09487  1.0000
  C   C1539     1.0  0.62066  0.87325  0.08524  1.0000
  C   C1540     1.0  0.67149  0.78808  0.10126  1.0000
  C   C1541     1.0  0.65645  0.87345  0.18369  1.0000
  H   H2692     1.0  0.68730  0.83584  0.11671  1.0000
  H   H2693     1.0  0.67366  0.84125  0.09403  1.0000
  H   H2694     1.0  0.66758  0.90750  0.12115  1.0000
  H   H2695     1.0  0.68718  0.88818  0.13049  1.0000
  H   H2696     1.0  0.67651  0.84988  0.15120  1.0000
  H   H2697     1.0  0.65266  0.84088  0.14937  1.0000
  H   H2698     1.0  0.63472  0.85227  0.11991  1.0000
  H   H2699     1.0  0.63794  0.88783  0.12282  1.0000
  H   H2700     1.0  0.64897  0.85939  0.08072  1.0000
  H   H2701     1.0  0.64604  0.89566  0.08673  1.0000
  H   H2702     1.0  0.66533  0.80367  0.13245  1.0000
  H   H2703     1.0  0.64786  0.81180  0.11288  1.0000
  H   H2704     1.0  0.64276  0.89049  0.15655  1.0000
  H   H2705     1.0  0.66692  0.89916  0.15866  1.0000
  H   H2706     1.0  0.69729  0.87399  0.09526  1.0000
  H   H2707     1.0  0.67688  0.88906  0.08326  1.0000
  H   H2708     1.0  0.70332  0.91964  0.07897  1.0000
  H   H2709     1.0  0.68637  0.93565  0.09692  1.0000
  H   H2710     1.0  0.70737  0.91914  0.10708  1.0000
  H   H2711     1.0  0.61868  0.88027  0.06857  1.0000
  H   H2712     1.0  0.61570  0.85179  0.08683  1.0000
  H   H2713     1.0  0.61193  0.88676  0.09582  1.0000
  H   H2714     1.0  0.68695  0.78702  0.10240  1.0000
  H   H2715     1.0  0.66611  0.76771  0.10610  1.0000
  H   H2716     1.0  0.66776  0.79216  0.08446  1.0000
  H   H2717     1.0  0.67022  0.86449  0.18834  1.0000
  H   H2718     1.0  0.65330  0.89170  0.19382  1.0000
  H   H2719     1.0  0.64543  0.85820  0.18671  1.0000
  C   C1542     1.0  0.56488  0.80025  0.21568  1.0000
  C   C1543     1.0  0.58712  0.85776  0.16704  1.0000
  H   H2720     1.0  0.54097  0.51956  0.03546  1.0000
  H   H2721     1.0  0.65198  0.53845  0.21441  1.0000
  C   C1544     1.0  0.55084  0.80766  0.13818  1.0000
  C   C1545     1.0  0.60595  0.84154  0.16410  1.0000
  C   C1546     1.0  0.51591  0.97357  0.03490  1.0000
  C   C1547     1.0  0.67131  0.55642  0.13149  1.0000
  C   C1548     1.0  0.60601  0.82308  0.14454  1.0000
  H   H2722     1.0  0.70451  0.58553  0.06425  1.0000
  H   H2723     1.0  0.58732  0.87517  0.15538  1.0000
  H   H2724     1.0  0.60310  0.90048  0.18287  1.0000
  H   H2725     1.0  0.61229  0.87152  0.19699  1.0000
  H   H2726     1.0  0.53457  0.51006  0.07399  1.0000
  C   C1549     1.0  0.72578  0.53059  0.03838  1.0000
  H   H2727     1.0  0.56936  0.90608  0.17849  1.0000
  C   C1550     1.0  0.73782  0.97506  0.25544  1.0000
  H   H2728     1.0  0.74019  0.62556  0.26259  1.0000
  H   H2729     1.0  0.64656  0.50995  0.23206  1.0000
  S   S353      1.0  0.52295  0.65815  0.19384  1.0000
  H   H2730     1.0  0.68351  0.95708  0.05784  1.0000
  C   C1551     1.0  0.56622  0.88782  0.18872  1.0000
  H   H2731     1.0  0.53235  0.50924  0.12084  1.0000
  H   H2732     1.0  0.56287  0.59496  0.10893  1.0000
  C   C1552     1.0  0.64720  0.51685  0.21519  1.0000
  C   C1553     1.0  0.53216  0.89791  0.18059  1.0000
  H   H2733     1.0  0.56171  0.64301  0.12238  1.0000
  C   C1554     1.0  0.55217  0.69473  0.09207  1.0000
  C   C1555     1.0  0.53543  0.81113  0.15202  1.0000
  H   H2734     1.0  0.56443  0.52800  0.04133  1.0000
  H   H2735     1.0  0.74614  0.51613  0.29874  1.0000
  H   H2736     1.0  0.55413  0.81124  0.22565  1.0000
  C   C1556     1.0  0.56606  0.63945  0.10562  1.0000
  C   C1557     1.0  0.53256  0.52890  0.27153  1.0000
  H   H2737     1.0  0.54914  0.86697  0.16509  1.0000
  C   C1558     1.0  0.53984  0.52777  0.17191  1.0000
  H   H2738     1.0  0.58584  0.60703  0.11452  1.0000
  H   H2739     1.0  0.58173  0.80649  0.18759  1.0000
  H   H2740     1.0  0.55508  0.64327  0.07391  1.0000
  H   H2741     1.0  0.74805  0.61153  0.07419  1.0000
  C   C1559     1.0  0.75312  0.64168  0.21827  1.0000
  H   H2742     1.0  0.52925  0.90646  0.19669  1.0000
  H   H2743     1.0  0.56265  0.69278  0.10483  1.0000
  C   C1560     1.0  0.54672  0.52228  0.06865  1.0000
  H   H2744     1.0  0.53149  0.56013  0.11635  1.0000
  H   H2745     1.0  0.52210  0.53287  0.23122  1.0000
  C   C1561     1.0  0.51457  0.69276  0.31733  1.0000
  H   H2746     1.0  0.57842  0.60528  0.08734  1.0000
  C   C1562     1.0  0.52995  0.78930  0.16557  1.0000
  S   S354      1.0  0.54688  0.95755  0.09538  1.0000
  H   H2747     1.0  0.72039  0.52133  0.05345  1.0000
  C   C1563     1.0  0.75902  0.59683  0.27868  1.0000
  H   H2748     1.0  0.55917  0.82258  0.18709  1.0000
  C   C1564     1.0  0.53460  0.52232  0.13434  1.0000
  C   C1565     1.0  0.74631  0.90564  0.31148  1.0000
  H   H2749     1.0  0.54251  0.54445  0.06916  1.0000
  C   C1566     1.0  0.75862  0.65210  0.01840  1.0000
  S   S355      1.0  0.53439  0.60460  0.14587  1.0000
  C   C1567     1.0  0.74955  0.65507  0.19662  1.0000
  H   H2750     1.0  0.62484  0.52130  0.03938  1.0000
  C   C1568     1.0  0.51788  0.60297  0.28659  1.0000
  H   H2751     1.0  0.56019  0.69338  0.07669  1.0000
  C   C1569     1.0  0.52732  0.66979  0.30743  1.0000
  H   H2752     1.0  0.73501  0.90076  0.30034  1.0000
  C   C1570     1.0  0.75275  0.61256  0.25834  1.0000
  H   H2753     1.0  0.75650  0.64273  0.18378  1.0000
  H   H2754     1.0  0.74648  0.60192  0.20513  1.0000
  H   H2755     1.0  0.73433  0.65680  0.19355  1.0000
  H   H2756     1.0  0.72667  0.58939  0.01421  1.0000
  H   H2757     1.0  0.74838  0.58215  0.28442  1.0000
  H   H2758     1.0  0.74721  0.65585  0.23065  1.0000
  C   C1571     1.0  0.56451  0.49147  0.00511  1.0000
  H   H2759     1.0  0.55839  0.51873  0.07981  1.0000
  H   H2760     1.0  0.59228  0.51075  0.04863  1.0000
  C   C1572     1.0  0.73383  0.48724  0.25154  1.0000
  H   H2761     1.0  0.54191  0.69668  0.28500  1.0000
  C   C1573     1.0  0.55283  0.51446  0.04601  1.0000
  H   H2762     1.0  0.75199  0.48378  0.22398  1.0000
  H   H2763     1.0  0.76161  0.56336  0.21940  1.0000
  H   H2764     1.0  0.53264  0.67750  0.06022  1.0000
  H   H2765     1.0  0.57132  0.74259  0.09917  1.0000
  H   H2766     1.0  0.52503  0.64961  0.11969  1.0000
  Fe  Fe176     1.0  0.71635  0.97319  0.16436  1.0000
  H   H2767     1.0  0.52296  0.70474  0.32858  1.0000
  H   H2768     1.0  0.62609  0.49347  0.02053  1.0000
  H   H2769     1.0  0.71932  0.49430  0.28148  1.0000
  H   H2770     1.0  0.56347  0.74402  0.07198  1.0000
  H   H2771     1.0  0.59516  0.51846  0.02050  1.0000
  H   H2772     1.0  0.76123  0.57375  0.09563  1.0000
  H   H2773     1.0  0.55310  0.76682  0.09164  1.0000
  H   H2774     1.0  0.51490  0.70002  0.15091  1.0000
  H   H2775     1.0  0.51913  0.88890  0.17469  1.0000
  C   C1574     1.0  0.73722  0.97806  0.27770  1.0000
  H   H2776     1.0  0.75781  0.62296  0.11036  1.0000
  H   H2777     1.0  0.75847  0.93412  0.28949  1.0000
  H   H2778     1.0  0.62292  0.48622  0.04867  1.0000
  C   C1575     1.0  0.54409  0.72449  0.09437  1.0000
  H   H2779     1.0  0.53401  0.48794  0.01031  1.0000
  H   H2780     1.0  0.53953  0.72815  0.11113  1.0000
  C   C1576     1.0  0.67419  0.97540  0.06055  1.0000
  H   H2781     1.0  0.75007  0.88665  0.32058  1.0000
  H   H2782     1.0  0.51809  0.79229  0.17633  1.0000
  H   H2783     1.0  0.76182  0.65115  0.09209  1.0000
  H   H2784     1.0  0.52744  0.97702  0.04527  1.0000
  H   H2785     1.0  0.52019  0.63220  0.06470  1.0000
  H   H2786     1.0  0.51373  0.57112  0.20918  1.0000
  C   C1577     1.0  0.51297  0.52340  0.26369  1.0000
  H   H2787     1.0  0.51579  0.69300  0.07736  1.0000
  H   H2788     1.0  0.66748  0.98101  0.04529  1.0000
  S   S356      1.0  0.54389  0.90251  0.65297  1.0000
  C   C1578     1.0  0.53794  0.51795  0.64946  1.0000
  H   H2789     1.0  0.56863  0.96269  0.58850  1.0000
  C   C1579     1.0  0.73170  0.79467  0.55126  1.0000
  Fe  Fe177     1.0  0.57643  0.67041  0.60161  1.0000
  S   S357      1.0  0.55954  0.65077  0.62773  1.0000
  S   S358      1.0  0.60793  0.67482  0.60162  1.0000
  Fe  Fe178     1.0  0.54165  0.68384  0.57439  1.0000
  Fe  Fe179     1.0  0.53985  0.68714  0.62280  1.0000
  S   S359      1.0  0.51535  0.83951  0.63832  1.0000
  Fe  Fe180     1.0  0.54359  0.63092  0.60174  1.0000
  H   H2790     1.0  0.72707  0.84237  0.43926  1.0000
  S   S360      1.0  0.55774  0.70790  0.59812  1.0000
  S   S361      1.0  0.56211  0.64797  0.57573  1.0000
  S   S362      1.0  0.70055  0.67789  0.65704  1.0000
  H   H2791     1.0  0.74946  0.89490  0.54623  1.0000
  H   H2792     1.0  0.69214  0.57497  0.62720  1.0000
  S   S363      1.0  0.71917  0.74710  0.64186  1.0000
  C   C1580     1.0  0.52055  0.80424  0.64225  1.0000
  C   C1581     1.0  0.53818  0.55983  0.61790  1.0000
  C   C1582     1.0  0.71267  0.57027  0.66732  1.0000
  Fe  Fe181     1.0  0.66949  0.91392  0.60548  1.0000
  S   S364      1.0  0.68606  0.93347  0.63106  1.0000
  S   S365      1.0  0.63845  0.90618  0.60573  1.0000
  Fe  Fe182     1.0  0.70344  0.90676  0.57450  1.0000
  S   S366      1.0  0.72258  0.92621  0.59769  1.0000
  S   S367      1.0  0.70904  0.88741  0.54168  1.0000
  Fe  Fe183     1.0  0.70767  0.90056  0.62248  1.0000
  S   S368      1.0  0.72459  0.87674  0.64668  1.0000
  Fe  Fe184     1.0  0.69940  0.95781  0.60446  1.0000
  H   H2793     1.0  0.57663  0.54543  0.63503  1.0000
  S   S369      1.0  0.69003  0.87925  0.59902  1.0000
  S   S370      1.0  0.68131  0.94018  0.57919  1.0000
  C   C1583     1.0  0.52869  0.79926  0.56333  1.0000
  H   H2794     1.0  0.52242  0.66000  0.43418  1.0000
  H   H2795     1.0  0.63241  0.96647  0.60467  1.0000
  H   H2796     1.0  0.59454  0.58818  0.63886  1.0000
  H   H2797     1.0  0.53626  0.65157  0.47982  1.0000
  C   C1584     1.0  0.64007  0.60928  0.60048  1.0000
  C   C1585     1.0  0.53847  0.53179  0.61226  1.0000
  H   H2798     1.0  0.73204  0.49010  0.46380  1.0000
  H   H2799     1.0  0.71925  0.90523  0.44468  1.0000
  H   H2800     1.0  0.71775  0.93466  0.41732  1.0000
  H   H2801     1.0  0.53019  0.61705  0.54531  1.0000
  C   C1586     1.0  0.72663  0.86005  0.50840  1.0000
  C   C1587     1.0  0.72912  0.87594  0.52673  1.0000
  C   C1588     1.0  0.74730  0.88248  0.53233  1.0000
  H   H2802     1.0  0.61450  0.60953  0.58249  1.0000
  H   H2803     1.0  0.69772  0.77729  0.58830  1.0000
  H   H2804     1.0  0.71082  0.82246  0.59599  1.0000
  H   H2805     1.0  0.76222  0.78447  0.50752  1.0000
  H   H2806     1.0  0.56319  0.82904  0.59132  1.0000
  C   C1589     1.0  0.72188  0.84067  0.64737  1.0000
  H   H2807     1.0  0.56462  0.91410  0.57887  1.0000
  N   N89       1.0  0.74695  0.92247  0.44602  1.0000
  C   C1590     1.0  0.71904  0.78273  0.64706  1.0000
  C   C1591     1.0  0.70431  0.79967  0.63980  1.0000
  C   C1592     1.0  0.70570  0.82856  0.64002  1.0000
  H   H2808     1.0  0.69206  0.79039  0.63338  1.0000
  H   H2809     1.0  0.69427  0.84141  0.63441  1.0000
  C   C1593     1.0  0.72657  0.58178  0.65433  1.0000
  H   H2810     1.0  0.52387  0.62912  0.50731  1.0000
  H   H2811     1.0  0.63586  0.79014  0.65568  1.0000
  C   C1594     1.0  0.71439  0.52732  0.64683  1.0000
  C   C1595     1.0  0.72836  0.53874  0.63388  1.0000
  C   C1596     1.0  0.73443  0.56577  0.63766  1.0000
  H   H2812     1.0  0.69002  0.53420  0.57796  1.0000
  H   H2813     1.0  0.54633  0.65807  0.44265  1.0000
  C   C1597     1.0  0.62103  0.90207  0.66778  1.0000
  C   C1598     1.0  0.62001  0.67510  0.62583  1.0000
  C   C1599     1.0  0.63857  0.68380  0.62579  1.0000
  C   C1600     1.0  0.64862  0.68434  0.64475  1.0000
  H   H2814     1.0  0.73569  0.88445  0.45829  1.0000
  H   H2815     1.0  0.67332  0.62479  0.59683  1.0000
  C   C1601     1.0  0.61162  0.66663  0.64499  1.0000
  H   H2816     1.0  0.64514  0.69047  0.61104  1.0000
  H   H2817     1.0  0.66276  0.69163  0.64454  1.0000
  H   H2818     1.0  0.59735  0.65985  0.64524  1.0000
  Fe  Fe185     1.0  0.52466  0.93372  0.66874  1.0000
  C   C1602     1.0  0.59467  0.89339  0.64567  1.0000
  C   C1603     1.0  0.60611  0.89633  0.62749  1.0000
  C   C1604     1.0  0.62503  0.90234  0.62928  1.0000
  C   C1605     1.0  0.63256  0.90511  0.64949  1.0000
  H   H2819     1.0  0.53116  0.75362  0.56420  1.0000
  H   H2820     1.0  0.58025  0.88836  0.64393  1.0000
  H   H2821     1.0  0.60031  0.89373  0.61190  1.0000
  H   H2822     1.0  0.64720  0.90960  0.65103  1.0000
  C   C1606     1.0  0.53788  0.56681  0.63943  1.0000
  C   C1607     1.0  0.53766  0.54594  0.65511  1.0000
  H   H2823     1.0  0.53756  0.58829  0.64397  1.0000
  H   H2824     1.0  0.55610  0.84608  0.61570  1.0000
  C   C1608     1.0  0.51641  0.62671  0.54965  1.0000
  C   C1609     1.0  0.56208  0.82663  0.60886  1.0000
  H   H2825     1.0  0.55978  0.77124  0.58037  1.0000
  H   H2826     1.0  0.56649  0.78691  0.55516  1.0000
  S   S371      1.0  0.53759  0.58530  0.59759  1.0000
  H   H2827     1.0  0.52777  0.64998  0.38943  1.0000
  H   H2828     1.0  0.52695  0.62532  0.46311  1.0000
  C   C1610     1.0  0.60197  0.89650  0.66590  1.0000
  H   H2829     1.0  0.67621  0.81666  0.59746  1.0000
  C   C1611     1.0  0.73750  0.87989  0.42435  1.0000
  H   H2830     1.0  0.71651  0.97375  0.39162  1.0000
  H   H2831     1.0  0.75734  0.49145  0.46325  1.0000
  C   C1612     1.0  0.60499  0.53251  0.64427  1.0000
  H   H2832     1.0  0.60112  0.98157  0.59096  1.0000
  H   H2833     1.0  0.57639  0.93883  0.63288  1.0000
  H   H2834     1.0  0.67429  0.82518  0.56952  1.0000
  H   H2835     1.0  0.61469  0.53753  0.65722  1.0000
  H   H2836     1.0  0.71263  0.85494  0.50386  1.0000
  C   C1613     1.0  0.67697  0.80819  0.58110  1.0000
  H   H2837     1.0  0.66904  0.56785  0.66516  1.0000
  S   S372      1.0  0.53576  0.70189  0.54135  1.0000
  C   C1614     1.0  0.62171  0.66704  0.66396  1.0000
  C   C1615     1.0  0.59475  0.48747  0.65937  1.0000
  H   H2838     1.0  0.57438  0.76454  0.63181  1.0000
  H   H2839     1.0  0.75951  0.76233  0.62194  1.0000
  H   H2840     1.0  0.57232  0.94609  0.66701  1.0000
  C   C1616     1.0  0.74509  0.84347  0.59759  1.0000
  C   C1617     1.0  0.56192  0.92086  0.59550  1.0000
  C   C1618     1.0  0.67671  0.62579  0.61389  1.0000
  C   C1619     1.0  0.70664  0.54327  0.66358  1.0000
  C   C1620     1.0  0.73519  0.79492  0.65434  1.0000
  H   H2841     1.0  0.74914  0.83293  0.66031  1.0000
  H   H2842     1.0  0.53679  0.81545  0.55492  1.0000
  H   H2843     1.0  0.70834  0.83408  0.56926  1.0000
  C   C1621     1.0  0.69146  0.54219  0.59433  1.0000
  H   H2844     1.0  0.73975  0.84591  0.56402  1.0000
  H   H2845     1.0  0.53857  0.48944  0.62340  1.0000
  H   H2846     1.0  0.73730  0.79036  0.50755  1.0000
  C   C1622     1.0  0.51974  0.75731  0.62880  1.0000
  H   H2847     1.0  0.64851  0.84713  0.63960  1.0000
  C   C1623     1.0  0.72456  0.85530  0.42490  1.0000
  H   H2848     1.0  0.61080  0.54285  0.62985  1.0000
  H   H2849     1.0  0.67077  0.55831  0.63105  1.0000
  C   C1624     1.0  0.57317  0.94655  0.59994  1.0000
  C   C1625     1.0  0.67743  0.57514  0.62176  1.0000
  H   H2850     1.0  0.60523  0.96153  0.62915  1.0000
  H   H2851     1.0  0.72505  0.94754  0.46086  1.0000
  H   H2852     1.0  0.72736  0.84238  0.41062  1.0000
  H   H2853     1.0  0.72924  0.91064  0.48697  1.0000
  C   C1626     1.0  0.64716  0.60174  0.62298  1.0000
  H   H2854     1.0  0.52591  0.85547  0.56491  1.0000
  C   C1627     1.0  0.71192  0.81562  0.57921  1.0000
  H   H2855     1.0  0.68576  0.60911  0.65369  1.0000
  H   H2856     1.0  0.59575  0.95880  0.66475  1.0000
  H   H2857     1.0  0.72076  0.65317  0.60296  1.0000
  N   N90       1.0  0.73154  0.80535  0.57385  1.0000
  C   C1628     1.0  0.64026  0.67586  0.66392  1.0000
  H   H2858     1.0  0.75678  0.50748  0.42590  1.0000
  H   H2859     1.0  0.69907  0.67162  0.60836  1.0000
  H   H2860     1.0  0.72135  0.80659  0.54155  1.0000
  H   H2861     1.0  0.51460  0.81995  0.52796  1.0000
  H   H2862     1.0  0.64670  0.58526  0.66289  1.0000
  H   H2863     1.0  0.71924  0.95716  0.49987  1.0000
  C   C1629     1.0  0.53182  0.66409  0.44759  1.0000
  H   H2864     1.0  0.53861  0.52625  0.59562  1.0000
  H   H2865     1.0  0.70593  0.54958  0.59599  1.0000
  C   C1630     1.0  0.58068  0.81867  0.64247  1.0000
  H   H2866     1.0  0.55494  0.95594  0.62708  1.0000
  Fe  Fe186     1.0  0.71543  0.71517  0.66810  1.0000
  H   H2867     1.0  0.64800  0.59825  0.58776  1.0000
  C   C1631     1.0  0.73006  0.96386  0.39600  1.0000
  H   H2868     1.0  0.66344  0.49496  0.63368  1.0000
  H   H2869     1.0  0.72562  0.94881  0.65027  1.0000
  H   H2870     1.0  0.73369  0.94779  0.38404  1.0000
  C   C1632     1.0  0.52599  0.64748  0.46729  1.0000
  H   H2871     1.0  0.73454  0.52676  0.62099  1.0000
  H   H2872     1.0  0.70507  0.60861  0.60710  1.0000
  C   C1633     1.0  0.58823  0.57790  0.65300  1.0000
  H   H2873     1.0  0.62944  0.49462  0.60453  1.0000
  H   H2874     1.0  0.74350  0.92851  0.66317  1.0000
  H   H2875     1.0  0.70172  0.65058  0.58477  1.0000
  C   C1634     1.0  0.69612  0.79454  0.57674  1.0000
  C   C1635     1.0  0.52931  0.79441  0.66054  1.0000
  H   H2876     1.0  0.57822  0.84008  0.64834  1.0000
  C   C1636     1.0  0.67070  0.60874  0.64985  1.0000
  H   H2877     1.0  0.74534  0.57431  0.62763  1.0000
  C   C1637     1.0  0.61942  0.60259  0.59834  1.0000
  H   H2878     1.0  0.64141  0.63180  0.59760  1.0000
  H   H2879     1.0  0.61082  0.61363  0.61062  1.0000
  H   H2880     1.0  0.61732  0.58006  0.59990  1.0000
  H   H2881     1.0  0.55248  0.80953  0.61259  1.0000
  H   H2882     1.0  0.68922  0.52502  0.60578  1.0000
  H   H2883     1.0  0.56498  0.74997  0.55756  1.0000
  H   H2884     1.0  0.66508  0.62980  0.65368  1.0000
  H   H2885     1.0  0.59506  0.72301  0.63116  1.0000
  C   C1638     1.0  0.58181  0.75866  0.64655  1.0000
  C   C1639     1.0  0.53847  0.51090  0.62795  1.0000
  H   H2886     1.0  0.65101  0.81488  0.62540  1.0000
  H   H2887     1.0  0.75062  0.73402  0.60693  1.0000
  H   H2888     1.0  0.58678  0.80051  0.61090  1.0000
  C   C1640     1.0  0.73647  0.82375  0.65490  1.0000
  H   H2889     1.0  0.75209  0.87169  0.42356  1.0000
  C   C1641     1.0  0.58139  0.82020  0.61783  1.0000
  H   H2890     1.0  0.67069  0.64597  0.61936  1.0000
  C   C1642     1.0  0.69836  0.62725  0.61435  1.0000
  H   H2891     1.0  0.73368  0.78964  0.60598  1.0000
  S   S373      1.0  0.73505  0.61552  0.65871  1.0000
  H   H2892     1.0  0.53136  0.68652  0.45110  1.0000
  C   C1643     1.0  0.75031  0.79636  0.53820  1.0000
  H   H2893     1.0  0.66587  0.79275  0.57960  1.0000
  C   C1644     1.0  0.58619  0.72775  0.64542  1.0000
  H   H2894     1.0  0.70345  0.62898  0.63072  1.0000
  C   C1645     1.0  0.59997  0.77526  0.64858  1.0000
  H   H2895     1.0  0.73474  0.89154  0.40945  1.0000
  H   H2896     1.0  0.57884  0.50241  0.62341  1.0000
  C   C1646     1.0  0.73653  0.78268  0.58942  1.0000
  H   H2897     1.0  0.63948  0.61648  0.63380  1.0000
  C   C1647     1.0  0.52809  0.74739  0.64730  1.0000
  S   S374      1.0  0.52207  0.66570  0.59900  1.0000
  H   H2898     1.0  0.63733  0.52327  0.61966  1.0000
  C   C1648     1.0  0.67730  0.56577  0.59831  1.0000
  H   H2899     1.0  0.72734  0.76475  0.58746  1.0000
  H   H2900     1.0  0.64186  0.58097  0.62722  1.0000
  H   H2901     1.0  0.59076  0.83696  0.61249  1.0000
  H   H2902     1.0  0.74266  0.52959  0.44285  1.0000
  H   H2903     1.0  0.56599  0.90368  0.60636  1.0000
  C   C1649     1.0  0.57025  0.95578  0.62328  1.0000
  C   C1650     1.0  0.65570  0.48795  0.61965  1.0000
  N   N91       1.0  0.66803  0.60261  0.62657  1.0000
  H   H2904     1.0  0.53767  0.76875  0.53902  1.0000
  H   H2905     1.0  0.68086  0.58258  0.58706  1.0000
  H   H2906     1.0  0.53121  0.80180  0.58064  1.0000
  H   H2907     1.0  0.56781  0.80780  0.64726  1.0000
  H   H2908     1.0  0.58814  0.94108  0.59689  1.0000
  H   H2909     1.0  0.59888  0.50957  0.60765  1.0000
  H   H2910     1.0  0.66324  0.55813  0.59458  1.0000
  H   H2911     1.0  0.72300  0.96724  0.42906  1.0000
  C   C1651     1.0  0.70532  0.65221  0.60180  1.0000
  C   C1652     1.0  0.53297  0.76599  0.66309  1.0000
  C   C1653     1.0  0.62432  0.49059  0.63922  1.0000
  C   C1654     1.0  0.63366  0.81280  0.65425  1.0000
  C   C1655     1.0  0.51577  0.78563  0.62649  1.0000
  C   C1656     1.0  0.74423  0.82965  0.57549  1.0000
  C   C1657     1.0  0.74487  0.48710  0.45380  1.0000
  C   C1658     1.0  0.74388  0.50859  0.43596  1.0000
  S   S375      1.0  0.53091  0.71175  0.65181  1.0000
  C   C1659     1.0  0.53807  0.77140  0.55651  1.0000
  C   C1660     1.0  0.74206  0.85071  0.49583  1.0000
  C   C1661     1.0  0.73420  0.89831  0.44422  1.0000
  C   C1662     1.0  0.58585  0.54718  0.64888  1.0000
  H   H2912     1.0  0.73142  0.85317  0.60209  1.0000
  C   C1663     1.0  0.55859  0.76996  0.56283  1.0000
  S   S376      1.0  0.70564  0.49368  0.64276  1.0000
  H   H2913     1.0  0.75573  0.88238  0.58540  1.0000
  H   H2914     1.0  0.63229  0.49629  0.65347  1.0000
  S   S377      1.0  0.51834  0.97074  0.64697  1.0000
  C   C1664     1.0  0.75549  0.97908  0.59297  1.0000
  H   H2915     1.0  0.74920  0.82832  0.61002  1.0000
  H   H2916     1.0  0.66332  0.81970  0.64974  1.0000
  H   H2917     1.0  0.51288  0.66058  0.51535  1.0000
  H   H2918     1.0  0.74775  0.96016  0.46421  1.0000
  C   C1665     1.0  0.75675  0.77078  0.58802  1.0000
  C   C1666     1.0  0.63593  0.50056  0.61962  1.0000
  H   H2919     1.0  0.70969  0.86241  0.42488  1.0000
  H   H2920     1.0  0.73991  0.83832  0.48190  1.0000
  Fe  Fe187     1.0  0.52360  0.87040  0.66300  1.0000
  H   H2921     1.0  0.61670  0.81538  0.62643  1.0000
  H   H2922     1.0  0.54670  0.92541  0.59765  1.0000
  H   H2923     1.0  0.51574  0.74303  0.61667  1.0000
  H   H2924     1.0  0.57863  0.53830  0.66302  1.0000
  H   H2925     1.0  0.60807  0.77141  0.63351  1.0000
  C   C1667     1.0  0.51783  0.64421  0.37698  1.0000
  H   H2926     1.0  0.69604  0.78592  0.56046  1.0000
  H   H2927     1.0  0.73287  0.93826  0.51902  1.0000
  H   H2928     1.0  0.74610  0.96031  0.55313  1.0000
  H   H2929     1.0  0.72711  0.77289  0.55104  1.0000
  C   C1668     1.0  0.61476  0.82009  0.64364  1.0000
  C   C1669     1.0  0.76024  0.85698  0.50158  1.0000
  C   C1670     1.0  0.73944  0.92748  0.48627  1.0000
  N   N92       1.0  0.60448  0.50175  0.64098  1.0000
  H   H2930     1.0  0.57434  0.58787  0.65628  1.0000
  H   H2931     1.0  0.75871  0.75863  0.57325  1.0000
  C   C1671     1.0  0.73341  0.94851  0.50318  1.0000
  H   H2932     1.0  0.52831  0.72858  0.50160  1.0000
  C   C1672     1.0  0.66171  0.58821  0.66595  1.0000
  C   C1673     1.0  0.73974  0.94078  0.46379  1.0000
  H   H2933     1.0  0.75339  0.81822  0.53466  1.0000
  C   C1674     1.0  0.72833  0.95089  0.41812  1.0000
  C   C1675     1.0  0.59383  0.49636  0.62103  1.0000
  H   H2934     1.0  0.57940  0.49194  0.65927  1.0000
  H   H2935     1.0  0.57301  0.71629  0.64423  1.0000
  H   H2936     1.0  0.75883  0.82405  0.57078  1.0000
  H   H2937     1.0  0.66342  0.49428  0.60500  1.0000
  C   C1676     1.0  0.74906  0.78162  0.51691  1.0000
  H   H2938     1.0  0.75338  0.94156  0.62679  1.0000
  H   H2939     1.0  0.74708  0.78203  0.65849  1.0000
  C   C1677     1.0  0.65008  0.82439  0.64140  1.0000
  H   H2940     1.0  0.74707  0.75919  0.51942  1.0000
  H   H2941     1.0  0.73159  0.50532  0.42587  1.0000
  C   C1678     1.0  0.75409  0.95721  0.63944  1.0000
  H   H2942     1.0  0.52837  0.67398  0.35481  1.0000
  H   H2943     1.0  0.75938  0.90974  0.35877  1.0000
  C   C1679     1.0  0.73990  0.94936  0.65682  1.0000
  H   H2944     1.0  0.75334  0.91889  0.49061  1.0000
  H   H2945     1.0  0.73995  0.97922  0.59191  1.0000
  H   H2946     1.0  0.75658  0.95731  0.42737  1.0000
  H   H2947     1.0  0.61279  0.84285  0.64459  1.0000
  H   H2948     1.0  0.74352  0.96550  0.50371  1.0000
  C   C1680     1.0  0.74749  0.93921  0.42572  1.0000
  H   H2949     1.0  0.52379  0.62612  0.36823  1.0000
  N   N93       1.0  0.59775  0.80587  0.65272  1.0000
  H   H2950     1.0  0.75936  0.87626  0.61332  1.0000
  C   C1681     1.0  0.75938  0.86638  0.59744  1.0000
  C   C1682     1.0  0.51460  0.66858  0.36185  1.0000
  H   H2951     1.0  0.57207  0.76219  0.66010  1.0000
  C   C1683     1.0  0.51444  0.71329  0.52991  1.0000
  H   H2952     1.0  0.59348  0.72045  0.65991  1.0000
  H   H2953     1.0  0.59716  0.58102  0.66698  1.0000
  H   H2954     1.0  0.75415  0.92702  0.41262  1.0000
  H   H2955     1.0  0.75961  0.95708  0.59508  1.0000
  C   C1684     1.0  0.51498  0.72585  0.50969  1.0000
  H   H2956     1.0  0.51837  0.64873  0.55344  1.0000
  H   H2957     1.0  0.60852  0.76522  0.66120  1.0000
  C   C1685     1.0  0.76094  0.96637  0.55417  1.0000
  H   H2958     1.0  0.74092  0.97987  0.39562  1.0000
  C   C1686     1.0  0.58093  0.96472  0.66818  1.0000
  C   C1687     1.0  0.76067  0.75115  0.60661  1.0000
  S   S378      1.0  0.75572  0.58206  0.98253  1.0000
  H   H2959     1.0  0.76013  0.72594  0.73340  1.0000
  C   C1688     1.0  0.75241  0.62114  0.74072  1.0000
  S   S379      1.0  0.53804  0.92887  0.70075  1.0000
  S   S380      1.0  0.53713  0.86098  0.69420  1.0000
  C   C1689     1.0  0.75731  0.89383  0.93032  1.0000
  H   H2960     1.0  0.53303  0.80860  0.67278  1.0000
  H   H2961     1.0  0.74969  0.86160  0.89861  1.0000
  Fe  Fe188     1.0  0.71862  0.69320  0.71362  1.0000
  H   H2962     1.0  0.51520  0.49670  0.71260  1.0000
  S   S381      1.0  0.72547  0.70069  0.74879  1.0000
  H   H2963     1.0  0.62686  0.90430  0.68339  1.0000
  H   H2964     1.0  0.52715  0.48731  0.74817  1.0000
  C   C1690     1.0  0.72594  0.83688  0.79135  1.0000
  S   S382      1.0  0.70357  0.65404  0.70574  1.0000
  S   S383      1.0  0.69728  0.72081  0.69738  1.0000
  H   H2965     1.0  0.73848  0.64546  0.76465  1.0000
  H   H2966     1.0  0.71962  0.79524  0.78397  1.0000
  S   S384      1.0  0.75896  0.56396  0.92239  1.0000
  H   H2967     1.0  0.53832  0.82183  0.84019  1.0000
  H   H2968     1.0  0.56624  0.80849  0.68150  1.0000
  H   H2969     1.0  0.71839  0.76354  0.75836  1.0000
  C   C1691     1.0  0.69140  0.84278  0.69266  1.0000
  C   C1692     1.0  0.73790  0.90728  0.93514  1.0000
  H   H2970     1.0  0.55263  0.75891  0.73065  1.0000
  H   H2971     1.0  0.52100  0.84019  0.74752  1.0000
  H   H2972     1.0  0.72957  0.62465  0.79751  1.0000
  H   H2973     1.0  0.74517  0.60184  0.74511  1.0000
  H   H2974     1.0  0.51261  0.86669  0.86507  1.0000
  C   C1693     1.0  0.51615  0.86970  0.84784  1.0000
  H   H2975     1.0  0.76093  0.94328  0.86492  1.0000
  H   H2976     1.0  0.53723  0.55157  0.67173  1.0000
  H   H2977     1.0  0.65831  0.58216  0.70004  1.0000
  C   C1694     1.0  0.71424  0.65605  0.81468  1.0000
  H   H2978     1.0  0.73282  0.85508  0.78411  1.0000
  C   C1695     1.0  0.70786  0.77236  0.74744  1.0000
  C   C1696     1.0  0.73998  0.72826  0.78271  1.0000
  C   C1697     1.0  0.74241  0.72133  0.76108  1.0000
  C   C1698     1.0  0.73324  0.84522  0.95801  1.0000
  H   H2979     1.0  0.76196  0.90120  0.91434  1.0000
  H   H2980     1.0  0.74900  0.94841  0.93981  1.0000
  H   H2981     1.0  0.72811  0.72049  0.79161  1.0000
  H   H2982     1.0  0.51914  0.79881  0.83751  1.0000
  C   C1699     1.0  0.75782  0.73157  0.74986  1.0000
  H   H2983     1.0  0.53289  0.91205  0.82723  1.0000
  H   H2984     1.0  0.51576  0.80353  0.77483  1.0000
  H   H2985     1.0  0.72683  0.89853  0.92536  1.0000
  C   C1700     1.0  0.52034  0.94074  0.88825  1.0000
  H   H2986     1.0  0.69782  0.79146  0.71057  1.0000
  H   H2987     1.0  0.70667  0.75679  0.73470  1.0000
  H   H2988     1.0  0.70686  0.58198  0.68053  1.0000
  C   C1701     1.0  0.73227  0.63926  0.81048  1.0000
  H   H2989     1.0  0.70275  0.64197  0.81905  1.0000
  H   H2990     1.0  0.57415  0.48577  0.99160  1.0000
  C   C1702     1.0  0.70702  0.83362  0.70756  1.0000
  H   H2991     1.0  0.59162  0.80643  0.72022  1.0000
  H   H2992     1.0  0.73386  0.83052  0.80567  1.0000
  C   C1703     1.0  0.75245  0.74586  0.79280  1.0000
  H   H2993     1.0  0.72429  0.94785  0.93482  1.0000
  H   H2994     1.0  0.73424  0.90472  0.95226  1.0000
  H   H2995     1.0  0.67765  0.60353  0.69253  1.0000
  H   H2996     1.0  0.76208  0.83245  0.95655  1.0000
  H   H2997     1.0  0.67875  0.84965  0.70188  1.0000
  C   C1704     1.0  0.75404  0.85193  0.95320  1.0000
  H   H2998     1.0  0.68774  0.82564  0.68203  1.0000
  H   H2999     1.0  0.61677  0.48712  0.68338  1.0000
  C   C1705     1.0  0.52353  0.81828  0.84492  1.0000
  H   H3000     1.0  0.56641  0.80595  0.72025  1.0000
  H   H3001     1.0  0.68843  0.78821  0.77257  1.0000
  C   C1706     1.0  0.57935  0.97432  0.69124  1.0000
  H   H3002     1.0  0.53381  0.94711  0.89491  1.0000
  C   C1707     1.0  0.73302  0.80826  0.89799  1.0000
  H   H3003     1.0  0.72357  0.86227  0.95348  1.0000
  H   H3004     1.0  0.74393  0.67352  0.79252  1.0000
  H   H3005     1.0  0.74348  0.78705  0.74149  1.0000
  H   H3006     1.0  0.72920  0.82670  0.94910  1.0000
  H   H3007     1.0  0.70073  0.82804  0.76018  1.0000
  H   H3008     1.0  0.59588  0.48424  0.71494  1.0000
  H   H3009     1.0  0.75018  0.75138  0.80930  1.0000
  H   H3010     1.0  0.53613  0.74345  0.74890  1.0000
  H   H3011     1.0  0.54877  0.51428  0.96866  1.0000
  H   H3012     1.0  0.53204  0.89578  0.76906  1.0000
  C   C1708     1.0  0.60197  0.49405  0.68182  1.0000
  H   H3013     1.0  0.71514  0.83363  0.98455  1.0000
  C   C1709     1.0  0.72597  0.81303  0.77561  1.0000
  S   S385      1.0  0.73780  0.68999  0.68467  1.0000
  H   H3014     1.0  0.52646  0.78055  0.71051  1.0000
  H   H3015     1.0  0.72646  0.77954  0.69735  1.0000
  C   C1710     1.0  0.75314  0.64033  0.75983  1.0000
  Fe  Fe189     1.0  0.72118  0.65267  0.67570  1.0000
  H   H3016     1.0  0.71142  0.84270  0.79641  1.0000
  H   H3017     1.0  0.68723  0.81471  0.72895  1.0000
  C   C1711     1.0  0.57899  0.81331  0.71149  1.0000
  H   H3018     1.0  0.73582  0.78608  0.89456  1.0000
  Fe  Fe190     1.0  0.55611  0.89578  0.68505  1.0000
  H   H3019     1.0  0.73536  0.62721  0.82513  1.0000
  C   C1712     1.0  0.73391  0.79498  0.72907  1.0000
  H   H3020     1.0  0.75858  0.86675  0.96542  1.0000
  H   H3021     1.0  0.61511  0.66052  0.67873  1.0000
  H   H3022     1.0  0.60087  0.51641  0.68526  1.0000
  C   C1713     1.0  0.74676  0.85113  0.91416  1.0000
  H   H3023     1.0  0.53782  0.78064  0.74730  1.0000
  H   H3024     1.0  0.60903  0.80212  0.68441  1.0000
  N   N94       1.0  0.71444  0.79930  0.73828  1.0000
  H   H3025     1.0  0.67731  0.77905  0.74826  1.0000
  C   C1714     1.0  0.72998  0.83904  0.98164  1.0000
  N   N95       1.0  0.75883  0.86273  0.93120  1.0000
  C   C1715     1.0  0.75086  0.60924  0.00095  1.0000
  C   C1716     1.0  0.73809  0.93829  0.93049  1.0000
  C   C1717     1.0  0.75601  0.77369  0.70149  1.0000
  Fe  Fe191     1.0  0.51779  0.89430  0.70724  1.0000
  H   H3026     1.0  0.54375  0.91608  0.78839  1.0000
  C   C1718     1.0  0.74931  0.81968  0.91024  1.0000
  H   H3027     1.0  0.73293  0.75303  0.71604  1.0000
  H   H3028     1.0  0.75762  0.75717  0.68941  1.0000
  H   H3029     1.0  0.71020  0.66785  0.80019  1.0000
  C   C1719     1.0  0.74867  0.65847  0.80479  1.0000
  C   C1720     1.0  0.52067  0.89184  0.80115  1.0000
  C   C1721     1.0  0.68866  0.77328  0.75931  1.0000
  H   H3030     1.0  0.75927  0.79380  0.69390  1.0000
  H   H3031     1.0  0.75642  0.60737  0.78300  1.0000
  H   H3032     1.0  0.53294  0.93556  0.85733  1.0000
  H   H3033     1.0  0.72180  0.83994  0.74871  1.0000
  H   H3034     1.0  0.52977  0.87338  0.80387  1.0000
  H   H3035     1.0  0.73174  0.85557  0.91748  1.0000
  Fe  Fe192     1.0  0.68393  0.68168  0.68726  1.0000
  S   S386      1.0  0.58760  0.89305  0.68891  1.0000
  H   H3036     1.0  0.73136  0.81944  0.88264  1.0000
  H   H3037     1.0  0.71982  0.81013  0.90753  1.0000
  H   H3038     1.0  0.53205  0.90460  0.87328  1.0000
  H   H3039     1.0  0.73898  0.82133  0.98678  1.0000
  H   H3040     1.0  0.71605  0.67061  0.82799  1.0000
  H   H3041     1.0  0.75067  0.80789  0.92533  1.0000
  C   C1722     1.0  0.70094  0.80872  0.72146  1.0000
  H   H3042     1.0  0.57824  0.83623  0.71107  1.0000
  H   H3043     1.0  0.71040  0.85154  0.71747  1.0000
  S   S387      1.0  0.65257  0.67584  0.68802  1.0000
  C   C1723     1.0  0.52992  0.90876  0.78343  1.0000
  H   H3044     1.0  0.76223  0.81572  0.90058  1.0000
  C   C1724     1.0  0.73599  0.77423  0.71049  1.0000
  H   H3045     1.0  0.73986  0.81497  0.72382  1.0000
  H   H3046     1.0  0.58001  0.77896  0.69040  1.0000
  C   C1725     1.0  0.59685  0.81179  0.67628  1.0000
  H   H3047     1.0  0.69613  0.86035  0.68266  1.0000
  C   C1726     1.0  0.68417  0.74498  0.76871  1.0000
  H   H3048     1.0  0.74080  0.80758  0.77183  1.0000
  H   H3049     1.0  0.53164  0.87132  0.84688  1.0000
  H   H3050     1.0  0.71949  0.82813  0.69755  1.0000
  H   H3051     1.0  0.56466  0.98050  0.69535  1.0000
  C   C1727     1.0  0.71510  0.82113  0.75522  1.0000
  C   C1728     1.0  0.57947  0.80176  0.68893  1.0000
  H   H3052     1.0  0.67030  0.74589  0.77695  1.0000
  H   H3053     1.0  0.52460  0.50918  0.97596  1.0000
  H   H3054     1.0  0.68378  0.72927  0.75594  1.0000
  H   H3055     1.0  0.51277  0.92857  0.90057  1.0000
  H   H3056     1.0  0.74088  0.94215  0.91329  1.0000
  H   H3057     1.0  0.73303  0.85737  0.99135  1.0000
  C   C1729     1.0  0.53844  0.76123  0.73801  1.0000
  H   H3058     1.0  0.69487  0.73845  0.78038  1.0000
  H   H3059     1.0  0.53817  0.53239  0.99118  1.0000
  C   C1730     1.0  0.53873  0.51268  0.98229  1.0000
  C   C1731     1.0  0.51842  0.90866  0.82187  1.0000
  C   C1732     1.0  0.52404  0.92335  0.86836  1.0000
  H   H3060     1.0  0.59781  0.83445  0.67884  1.0000
  H   H3061     1.0  0.74452  0.63156  0.72778  1.0000
  C   C1733     1.0  0.52383  0.76216  0.72062  1.0000
  H   H3062     1.0  0.69601  0.53454  0.67389  1.0000
  H   H3063     1.0  0.75084  0.67095  0.81925  1.0000
  C   C1734     1.0  0.54429  0.48876  0.99696  1.0000
  H   H3064     1.0  0.53968  0.75833  0.67725  1.0000
  H   H3065     1.0  0.58368  0.95715  0.70199  1.0000
  H   H3066     1.0  0.52609  0.74327  0.71093  1.0000
  H   H3067     1.0  0.52083  0.92674  0.77907  1.0000
  H   H3068     1.0  0.57559  0.48579  0.69840  1.0000
  H   H3069     1.0  0.65393  0.61698  0.69118  1.0000
  H   H3070     1.0  0.52238  0.81586  0.86248  1.0000
  C   C1735     1.0  0.76226  0.63212  0.00251  1.0000
  H   H3071     1.0  0.75990  0.65952  0.75437  1.0000
  C   C1736     1.0  0.66305  0.59840  0.68878  1.0000
  H   H3072     1.0  0.51275  0.92959  0.81782  1.0000
  H   H3073     1.0  0.63407  0.82203  0.67034  1.0000
  S   S388      1.0  0.53704  0.49278  0.66993  1.0000
  H   H3074     1.0  0.73996  0.96427  0.67014  1.0000
  S   S389      1.0  0.80069  0.08285  0.32938  1.0000
  H   H3075     1.0  0.96559  0.13547  0.01156  1.0000
  H   H3076     1.0  0.98942  0.29213  0.04245  1.0000
  H   H3077     1.0  0.91595  0.41294  0.31955  1.0000
  H   H3078     1.0  0.82315  0.45760  0.33355  1.0000
  H   H3079     1.0  0.99867  0.37465  0.22980  1.0000
  S   S390      1.0  0.97028  0.32955  0.29266  1.0000
  H   H3080     1.0  0.99101  0.22279  0.04649  1.0000
  H   H3081     1.0  0.97688  0.34300  0.24859  1.0000
  H   H3082     1.0  0.76658  0.46092  0.29657  1.0000
  S   S391      1.0  0.77667  0.03624  0.28773  1.0000
  C   C1737     1.0  0.98659  0.35189  0.27997  1.0000
  C   C1738     1.0  0.98411  0.11782  0.30500  1.0000
  H   H3083     1.0  0.97588  0.20268  0.31534  1.0000
  H   H3084     1.0  0.77148  0.02190  0.24422  1.0000
  C   C1739     1.0  0.97150  0.42938  0.28757  1.0000
  H   H3085     1.0  0.00546  0.39415  0.10494  1.0000
  H   H3086     1.0  0.76967  0.08563  0.23548  1.0000
  N   N96       1.0  0.97843  0.45853  0.28705  1.0000
  C   C1740     1.0  0.94538  0.39550  0.28351  1.0000
  C   C1741     1.0  0.96808  0.11133  0.32097  1.0000
  H   H3087     1.0  0.94244  0.43461  0.29855  1.0000
  H   H3088     1.0  0.85845  0.38555  0.28818  1.0000
  C   C1742     1.0  0.85150  0.41095  0.31589  1.0000
  C   C1743     1.0  0.97786  0.24518  0.02068  1.0000
  H   H3089     1.0  0.82658  0.39749  0.30028  1.0000
  C   C1744     1.0  0.00553  0.35493  0.08855  1.0000
  H   H3090     1.0  0.99874  0.26179  0.06877  1.0000
  C   C1745     1.0  0.86263  0.40534  0.29527  1.0000
  H   H3091     1.0  0.98764  0.46368  0.21195  1.0000
  H   H3092     1.0  0.97997  0.35488  0.01054  1.0000
  C   C1746     1.0  0.97544  0.24280  0.09870  1.0000
  H   H3093     1.0  0.99958  0.46096  0.32555  1.0000
  H   H3094     1.0  0.97277  0.30989  0.05853  1.0000
  C   C1747     1.0  0.83037  0.41408  0.31144  1.0000
  C   C1748     1.0  0.97972  0.47323  0.22551  1.0000
  H   H3095     1.0  0.78951  0.45965  0.32467  1.0000
  C   C1749     1.0  0.76454  0.05253  0.18160  1.0000
  H   H3096     1.0  0.97639  0.22922  0.08456  1.0000
  H   H3097     1.0  0.96608  0.27829  0.08138  1.0000
  C   C1750     1.0  0.97898  0.33509  0.01943  1.0000
  H   H3098     1.0  0.93431  0.98610  0.33375  1.0000
  C   C1751     1.0  0.99930  0.45741  0.29044  1.0000
  H   H3099     1.0  0.97785  0.98449  0.30114  1.0000
  C   C1752     1.0  0.99307  0.23241  0.03109  1.0000
  H   H3100     1.0  0.77344  0.06247  0.16922  1.0000
  C   C1753     1.0  0.99907  0.37245  0.24691  1.0000
  H   H3101     1.0  0.77123  0.48168  0.10860  1.0000
  H   H3102     1.0  0.94047  0.00502  0.30994  1.0000
  H   H3103     1.0  0.98013  0.33112  0.09030  1.0000
  C   C1754     1.0  0.98236  0.20156  0.33123  1.0000
  C   C1755     1.0  0.97859  0.14575  0.00616  1.0000
  N   N97       1.0  0.00028  0.30615  0.07223  1.0000
  C   C1756     1.0  0.01073  0.23119  0.02119  1.0000
  H   H3104     1.0  0.97388  0.13721  0.04996  1.0000
  H   H3105     1.0  0.00441  0.36512  0.07285  1.0000
  C   C1757     1.0  0.99550  0.32688  0.08952  1.0000
  C   C1758     1.0  0.81758  0.36084  0.33177  1.0000
  H   H3106     1.0  0.85463  0.39373  0.32703  1.0000
  H   H3107     1.0  0.96456  0.47077  0.22286  1.0000
  H   H3108     1.0  0.00445  0.99250  0.23950  1.0000
  H   H3109     1.0  0.98455  0.07790  0.28915  1.0000
  H   H3110     1.0  0.96418  0.24565  0.02836  1.0000
  H   H3111     1.0  0.99918  0.31813  0.10542  1.0000
  Fe  Fe193     1.0  0.78431  0.04456  0.32241  1.0000
  H   H3112     1.0  0.97299  0.18042  0.02808  1.0000
  C   C1759     1.0  0.94584  0.99043  0.32220  1.0000
  H   H3113     1.0  0.00634  0.44305  0.27898  1.0000
  H   H3114     1.0  0.82872  0.43350  0.30211  1.0000
  H   H3115     1.0  0.95231  0.38566  0.26944  1.0000
  H   H3116     1.0  0.97471  0.41927  0.30302  1.0000
  C   C1760     1.0  0.77130  0.44064  0.30301  1.0000
  C   C1761     1.0  0.98987  0.33666  0.04005  1.0000
  H   H3117     1.0  0.99739  0.17504  0.02117  1.0000
  H   H3118     1.0  0.79564  0.39953  0.30999  1.0000
  H   H3119     1.0  0.97591  0.28558  0.10677  1.0000
  C   C1762     1.0  0.99940  0.36689  0.29143  1.0000
  H   H3120     1.0  0.96397  0.33112  0.02282  1.0000
  H   H3121     1.0  0.80027  0.45035  0.29959  1.0000
  C   C1763     1.0  0.97767  0.27297  0.09217  1.0000
  C   C1764     1.0  0.98295  0.10014  0.28506  1.0000
  H   H3122     1.0  0.77371  0.04084  0.19268  1.0000
  H   H3123     1.0  0.96157  0.24012  0.10660  1.0000
  C   C1765     1.0  0.98666  0.35460  0.25765  1.0000
  C   C1766     1.0  0.99751  0.37475  0.10536  1.0000
  H   H3124     1.0  0.77242  0.12610  0.03525  1.0000
  C   C1767     1.0  0.97520  0.47232  0.26576  1.0000
  H   H3125     1.0  0.94980  0.38434  0.29812  1.0000
  C   C1768     1.0  0.95028  0.42591  0.28466  1.0000
  H   H3126     1.0  0.87778  0.40376  0.29856  1.0000
  C   C1769     1.0  0.79067  0.44328  0.31245  1.0000
  H   H3127     1.0  0.98637  0.23635  0.11008  1.0000
  H   H3128     1.0  0.96729  0.08854  0.32269  1.0000
  H   H3129     1.0  0.00461  0.34045  0.03547  1.0000
  H   H3130     1.0  0.98401  0.35452  0.04910  1.0000
  C   C1770     1.0  0.99709  0.27763  0.08134  1.0000
  C   C1771     1.0  0.98770  0.30996  0.05339  1.0000
  H   H3131     1.0  0.98486  0.31837  0.00913  1.0000
  H   H3132     1.0  0.98292  0.13968  0.29977  1.0000
  H   H3133     1.0  0.94538  0.43593  0.26985  1.0000
  H   H3134     1.0  0.98258  0.37983  0.10233  1.0000
  H   H3135     1.0  0.89797  0.43857  0.32578  1.0000
  H   H3136     1.0  0.98243  0.43688  0.24481  1.0000
  C   C1772     1.0  0.98408  0.16459  0.02476  1.0000
  H   H3137     1.0  0.95499  0.11765  0.31288  1.0000
  H   H3138     1.0  0.78733  0.41028  0.33538  1.0000
  H   H3139     1.0  0.86032  0.42234  0.28361  1.0000
  H   H3140     1.0  0.97908  0.41654  0.27552  1.0000
  H   H3141     1.0  0.96935  0.10382  0.27715  1.0000
  H   H3142     1.0  0.00218  0.42618  0.31604  1.0000
  H   H3143     1.0  0.93003  0.39349  0.28205  1.0000
  N   N98       1.0  0.81725  0.41434  0.33052  1.0000
  C   C1773     1.0  0.98551  0.45907  0.24623  1.0000
  H   H3144     1.0  0.77986  0.11867  0.26178  1.0000
  H   H3145     1.0  0.80059  0.99608  0.25878  1.0000
  H   H3146     1.0  0.82955  0.35787  0.32044  1.0000
  C   C1774     1.0  0.98688  0.14792  0.04520  1.0000
  C   C1775     1.0  0.79748  0.41542  0.32237  1.0000
  H   H3147     1.0  0.99803  0.11374  0.31189  1.0000
  H   H3148     1.0  0.96015  0.47338  0.26199  1.0000
  C   C1776     1.0  0.00586  0.44791  0.31281  1.0000
  Fe  Fe194     1.0  0.96129  0.32563  0.32776  1.0000
  H   H3149     1.0  0.93003  0.12525  0.33234  1.0000
  H   H3150     1.0  0.77136  0.40655  0.23593  1.0000
  H   H3151     1.0  0.00085  0.46131  0.24736  1.0000
  H   H3152     1.0  0.77171  0.42555  0.28981  1.0000
  H   H3153     1.0  0.99850  0.13249  0.04312  1.0000
  H   H3154     1.0  0.99434  0.10561  0.27364  1.0000
  H   H3155     1.0  0.99568  0.16215  0.32577  1.0000
  C   C1777     1.0  0.96935  0.47540  0.30480  1.0000
  S   S392      1.0  0.93578  0.30046  0.33528  1.0000
  H   H3156     1.0  0.99971  0.36480  0.30855  1.0000
  H   H3157     1.0  0.98959  0.12912  0.00475  1.0000
  H   H3158     1.0  0.77918  0.47788  0.08140  1.0000
  H   H3159     1.0  0.89432  0.40250  0.33180  1.0000
  H   H3160     1.0  0.99055  0.16199  0.05823  1.0000
  H   H3161     1.0  0.95725  0.00016  0.33099  1.0000
  H   H3162     1.0  0.85665  0.43045  0.32250  1.0000
  H   H3163     1.0  0.99572  0.21273  0.33042  1.0000
  C   C1778     1.0  0.90478  0.41902  0.33122  1.0000
  H   H3164     1.0  0.99879  0.36556  0.12153  1.0000
  H   H3165     1.0  0.00531  0.47805  0.28718  1.0000
  H   H3166     1.0  0.96685  0.46208  0.31906  1.0000
  H   H3167     1.0  0.80441  0.36004  0.32289  1.0000
  H   H3168     1.0  0.95795  0.16204  0.32763  1.0000
  H   H3169     1.0  0.00786  0.27226  0.09334  1.0000
  H   H3170     1.0  0.76428  0.19126  0.01688  1.0000
  H   H3171     1.0  0.94091  0.47906  0.29096  1.0000
  H   H3172     1.0  0.00879  0.29066  0.16747  1.0000
  C   C1779     1.0  0.01205  0.38429  0.28066  1.0000
  C   C1780     1.0  0.01182  0.38754  0.25838  1.0000
  H   H3173     1.0  0.82128  0.98263  0.24549  1.0000
  H   H3174     1.0  0.76279  0.08872  0.20098  1.0000
  C   C1781     1.0  0.76600  0.10913  0.26406  1.0000
  H   H3175     1.0  0.76762  0.09141  0.27516  1.0000
  H   H3176     1.0  0.77806  0.31025  0.51467  1.0000
  S   S393      1.0  0.85142  0.05617  0.34551  1.0000
  Fe  Fe195     1.0  0.96462  0.03804  0.45571  1.0000
  S   S394      1.0  0.98392  0.04873  0.42821  1.0000
  S   S395      1.0  0.97095  0.02499  0.49010  1.0000
  Fe  Fe196     1.0  0.92974  0.04931  0.42872  1.0000
  S   S396      1.0  0.94655  0.06063  0.39961  1.0000
  S   S397      1.0  0.89809  0.04765  0.43012  1.0000
  Fe  Fe197     1.0  0.96460  0.02381  0.40846  1.0000
  H   H3177     1.0  0.84214  0.26972  0.42074  1.0000
  Fe  Fe198     1.0  0.96403  0.08488  0.42173  1.0000
  S   S398      1.0  0.97617  0.12720  0.41320  1.0000
  S   S399      1.0  0.94659  0.01093  0.43614  1.0000
  S   S400      1.0  0.94600  0.07583  0.45060  1.0000
  S   S401      1.0  0.97754  0.30661  0.35494  1.0000
  Fe  Fe199     1.0  0.92612  0.33530  0.35630  1.0000
  S   S402      1.0  0.94004  0.31765  0.38486  1.0000
  S   S403      1.0  0.89636  0.35248  0.35769  1.0000
  Fe  Fe200     1.0  0.96454  0.34223  0.37369  1.0000
  S   S404      1.0  0.97626  0.37050  0.39829  1.0000
  Fe  Fe201     1.0  0.95115  0.28350  0.36370  1.0000
  S   S405      1.0  0.94265  0.23903  0.37248  1.0000
  H   H3178     1.0  0.83031  0.33601  0.35702  1.0000
  H   H3179     1.0  0.83027  0.25504  0.45683  1.0000
  H   H3180     1.0  0.97291  0.21212  0.34297  1.0000
  Fe  Fe202     1.0  0.81579  0.32988  0.43459  1.0000
  S   S406      1.0  0.80866  0.31829  0.40161  1.0000
  S   S407      1.0  0.84611  0.33775  0.44111  1.0000
  Fe  Fe203     1.0  0.77567  0.32429  0.45103  1.0000
  Fe  Fe204     1.0  0.79213  0.28395  0.41637  1.0000
  Fe  Fe205     1.0  0.78359  0.34608  0.40647  1.0000
  H   H3181     1.0  0.78305  0.27516  0.52309  1.0000
  S   S408      1.0  0.80054  0.29454  0.44973  1.0000
  S   S409      1.0  0.79186  0.36041  0.43871  1.0000
  Fe  Fe206     1.0  0.78775  0.02316  0.36776  1.0000
  H   H3182     1.0  0.00501  0.43442  0.41318  1.0000
  C   C1782     1.0  0.91111  0.26134  0.41164  1.0000
  Fe  Fe207     1.0  0.78382  0.08590  0.35997  1.0000
  H   H3183     1.0  0.77396  0.40224  0.52596  1.0000
  H   H3184     1.0  0.84448  0.47998  0.35754  1.0000
  H   H3185     1.0  0.93684  0.24188  0.57582  1.0000
  S   S410      1.0  0.80409  0.05935  0.37813  1.0000
  C   C1783     1.0  0.88746  0.22146  0.39241  1.0000
  H   H3186     1.0  0.93227  0.45032  0.38435  1.0000
  S   S411      1.0  0.78421  0.99082  0.39354  1.0000
  H   H3187     1.0  0.85664  0.25652  0.37962  1.0000
  C   C1784     1.0  0.88229  0.27600  0.36925  1.0000
  H   H3188     1.0  0.90329  0.12248  0.35739  1.0000
  H   H3189     1.0  0.80667  0.44526  0.35267  1.0000
  C   C1785     1.0  0.78259  0.46818  0.38768  1.0000
  H   H3190     1.0  0.81418  0.20238  0.36974  1.0000
  C   C1786     1.0  0.78969  0.42078  0.39858  1.0000
  H   H3191     1.0  0.99168  0.45023  0.44533  1.0000
  H   H3192     1.0  0.85074  0.22466  0.40595  1.0000
  H   H3193     1.0  0.96511  0.31650  0.65194  1.0000
  C   C1787     1.0  0.88287  0.34940  0.38137  1.0000
  C   C1788     1.0  0.89068  0.34019  0.40041  1.0000
  C   C1789     1.0  0.87941  0.33765  0.41886  1.0000
  C   C1790     1.0  0.86015  0.34337  0.41821  1.0000
  C   C1791     1.0  0.85241  0.35326  0.39929  1.0000
  C   C1792     1.0  0.86380  0.35650  0.38103  1.0000
  H   H3194     1.0  0.90539  0.33525  0.40102  1.0000
  H   H3195     1.0  0.88556  0.33062  0.43356  1.0000
  H   H3196     1.0  0.83768  0.35865  0.39879  1.0000
  H   H3197     1.0  0.85781  0.36393  0.36642  1.0000
  C   C1793     1.0  0.86431  0.05180  0.36897  1.0000
  C   C1794     1.0  0.88364  0.05588  0.36817  1.0000
  C   C1795     1.0  0.89423  0.05381  0.38671  1.0000
  C   C1796     1.0  0.88556  0.04773  0.40624  1.0000
  C   C1797     1.0  0.86629  0.04296  0.40697  1.0000
  C   C1798     1.0  0.85571  0.04489  0.38840  1.0000
  H   H3198     1.0  0.89039  0.06083  0.35313  1.0000
  H   H3199     1.0  0.90904  0.05727  0.38595  1.0000
  H   H3200     1.0  0.85950  0.03797  0.42199  1.0000
  H   H3201     1.0  0.84092  0.04103  0.38916  1.0000
  C   C1799     1.0  0.96623  0.15896  0.40360  1.0000
  C   C1800     1.0  0.97816  0.18090  0.39865  1.0000
  C   C1801     1.0  0.97119  0.20589  0.38981  1.0000
  C   C1802     1.0  0.95215  0.20919  0.38555  1.0000
  C   C1803     1.0  0.94017  0.18739  0.39079  1.0000
  C   C1804     1.0  0.94710  0.16257  0.39991  1.0000
  H   H3202     1.0  0.99297  0.17846  0.40148  1.0000
  H   H3203     1.0  0.98062  0.22234  0.38586  1.0000
  H   H3204     1.0  0.92546  0.18959  0.38756  1.0000
  H   H3205     1.0  0.93770  0.14605  0.40378  1.0000
  C   C1805     1.0  0.97388  0.46404  0.38875  1.0000
  C   C1806     1.0  0.96861  0.45241  0.40831  1.0000
  C   C1807     1.0  0.96825  0.42358  0.41077  1.0000
  C   C1808     1.0  0.97286  0.40619  0.39365  1.0000
  C   C1809     1.0  0.97680  0.41783  0.37370  1.0000
  C   C1810     1.0  0.97744  0.44666  0.37134  1.0000
  H   H3206     1.0  0.96585  0.46546  0.42186  1.0000
  H   H3207     1.0  0.96506  0.41472  0.42618  1.0000
  C   C1811     1.0  0.76445  0.33639  0.59431  1.0000
  H   H3208     1.0  0.76772  0.08123  0.60652  1.0000
  C   C1812     1.0  0.86138  0.23391  0.41623  1.0000
  H   H3209     1.0  0.78928  0.01075  0.60631  1.0000
  H   H3210     1.0  0.86326  0.28428  0.39540  1.0000
  C   C1813     1.0  0.95217  0.11497  0.35549  1.0000
  C   C1814     1.0  0.84265  0.13246  0.35297  1.0000
  H   H3211     1.0  0.76366  0.03375  0.59328  1.0000
  C   C1815     1.0  0.91931  0.41052  0.42475  1.0000
  H   H3212     1.0  0.80497  0.33742  0.35763  1.0000
  C   C1816     1.0  0.98978  0.00698  0.50268  1.0000
  H   H3213     1.0  0.00758  0.00313  0.47486  1.0000
  H   H3214     1.0  0.82829  0.12647  0.34886  1.0000
  H   H3215     1.0  0.89010  0.24923  0.43388  1.0000
  H   H3216     1.0  0.85969  0.26694  0.44069  1.0000
  H   H3217     1.0  0.88496  0.28120  0.42115  1.0000
  H   H3218     1.0  0.98750  0.26186  0.64807  1.0000
  H   H3219     1.0  0.77728  0.23528  0.59849  1.0000
  C   C1817     1.0  0.99536  0.28521  0.58267  1.0000
  S   S412      1.0  0.97338  0.99458  0.38183  1.0000
  N   N99       1.0  0.90470  0.43512  0.39207  1.0000
  C   C1818     1.0  0.00595  0.99814  0.49158  1.0000
  N   N100      1.0  0.98783  0.26924  0.60161  1.0000
  H   H3220     1.0  0.96427  0.43127  0.46448  1.0000
  H   H3221     1.0  0.00013  0.99356  0.65382  1.0000
  H   H3222     1.0  0.80874  0.38891  0.35714  1.0000
  C   C1819     1.0  0.77680  0.30384  0.54905  1.0000
  H   H3223     1.0  0.96746  0.25832  0.56132  1.0000
  H   H3224     1.0  0.00070  0.46381  0.54607  1.0000
  H   H3225     1.0  0.80013  0.30144  0.52643  1.0000
  H   H3226     1.0  0.79737  0.40638  0.40848  1.0000
  C   C1820     1.0  0.78494  0.29721  0.52696  1.0000
  H   H3227     1.0  0.78451  0.29084  0.56063  1.0000
  Fe  Fe208     1.0  0.81987  0.05410  0.34747  1.0000
  H   H3228     1.0  0.80994  0.06458  0.45274  1.0000
  H   H3229     1.0  0.97790  0.30768  0.61548  1.0000
  H   H3230     1.0  0.94849  0.21715  0.55851  1.0000
  H   H3231     1.0  0.96716  0.40081  0.48078  1.0000
  H   H3232     1.0  0.78397  0.46005  0.44664  1.0000
  H   H3233     1.0  0.76908  0.28391  0.59021  1.0000
  C   C1821     1.0  0.79212  0.44928  0.40078  1.0000
  C   C1822     1.0  0.92801  0.38304  0.43203  1.0000
  H   H3234     1.0  0.85130  0.45178  0.42039  1.0000
  H   H3235     1.0  0.77943  0.32593  0.55199  1.0000
  H   H3236     1.0  0.99911  0.12243  0.34569  1.0000
  C   C1823     1.0  0.80502  0.06675  0.43617  1.0000
  H   H3237     1.0  0.77788  0.32955  0.58687  1.0000
  C   C1824     1.0  0.96729  0.24371  0.57502  1.0000
  H   H3238     1.0  0.86455  0.43597  0.44164  1.0000
  C   C1825     1.0  0.77074  0.45842  0.37217  1.0000
  H   H3239     1.0  0.98481  0.20774  0.60496  1.0000
  H   H3240     1.0  0.87979  0.17164  0.35373  1.0000
  H   H3241     1.0  0.76321  0.47288  0.36212  1.0000
  H   H3242     1.0  0.97927  0.22898  0.57288  1.0000
  H   H3243     1.0  0.81537  0.44538  0.45810  1.0000
  H   H3244     1.0  0.90682  0.41451  0.43508  1.0000
  H   H3245     1.0  0.97214  0.10229  0.66735  1.0000
  H   H3246     1.0  0.98713  0.14752  0.66192  1.0000
  H   H3247     1.0  0.91301  0.27065  0.39569  1.0000
  H   H3248     1.0  0.90342  0.98789  0.43832  1.0000
  H   H3249     1.0  0.92950  0.42692  0.42750  1.0000
  H   H3250     1.0  0.99354  0.17164  0.35313  1.0000
  N   N101      1.0  0.83499  0.12782  0.41489  1.0000
  C   C1826     1.0  0.85425  0.13601  0.42133  1.0000
  C   C1827     1.0  0.82154  0.15168  0.41909  1.0000
  C   C1828     1.0  0.82952  0.10254  0.42750  1.0000
  C   C1829     1.0  0.83449  0.12086  0.39152  1.0000
  C   C1830     1.0  0.84348  0.14200  0.37601  1.0000
  C   C1831     1.0  0.87011  0.11440  0.41670  1.0000
  C   C1832     1.0  0.80841  0.09584  0.42768  1.0000
  C   C1833     1.0  0.81985  0.16124  0.44257  1.0000
  C   C1834     1.0  0.80229  0.17924  0.44631  1.0000
  C   C1835     1.0  0.98608  0.17155  0.33779  1.0000
  C   C1836     1.0  0.88926  0.12578  0.42169  1.0000
  H   H3251     1.0  0.91874  0.11569  0.37925  1.0000
  H   H3252     1.0  0.85449  0.13978  0.43875  1.0000
  H   H3253     1.0  0.85801  0.15605  0.41389  1.0000
  H   H3254     1.0  0.82567  0.17015  0.40972  1.0000
  H   H3255     1.0  0.80738  0.14691  0.41335  1.0000
  H   H3256     1.0  0.83381  0.10401  0.44436  1.0000
  H   H3257     1.0  0.83737  0.08405  0.42137  1.0000
  H   H3258     1.0  0.84135  0.10043  0.38830  1.0000
  H   H3259     1.0  0.81979  0.11844  0.38649  1.0000
  H   H3260     1.0  0.85844  0.14465  0.37942  1.0000
  H   H3261     1.0  0.83623  0.16234  0.37716  1.0000
  H   H3262     1.0  0.86805  0.09587  0.42685  1.0000
  H   H3263     1.0  0.87053  0.10788  0.39985  1.0000
  H   H3264     1.0  0.80253  0.09760  0.41159  1.0000
  H   H3265     1.0  0.80036  0.11049  0.43802  1.0000
  H   H3266     1.0  0.81920  0.14369  0.45389  1.0000
  H   H3267     1.0  0.83216  0.17359  0.44653  1.0000
  H   H3268     1.0  0.80176  0.18666  0.46297  1.0000
  H   H3269     1.0  0.80230  0.19742  0.43552  1.0000
  H   H3270     1.0  0.98869  0.30995  0.66096  1.0000
  S   S413      1.0  0.94993  0.36202  0.34622  1.0000
  C   C1837     1.0  0.91868  0.45789  0.39134  1.0000
  C   C1838     1.0  0.92179  0.27832  0.42755  1.0000
  H   H3271     1.0  0.88997  0.13116  0.43878  1.0000
  H   H3272     1.0  0.90028  0.10982  0.41820  1.0000
  H   H3273     1.0  0.89219  0.14427  0.41179  1.0000
  H   H3274     1.0  0.91762  0.36645  0.43131  1.0000
  H   H3275     1.0  0.94873  0.21178  0.58687  1.0000
  C   C1839     1.0  0.89781  0.42870  0.37020  1.0000
  C   C1840     1.0  0.88818  0.44430  0.40578  1.0000
  C   C1841     1.0  0.87309  0.42225  0.40990  1.0000
  C   C1842     1.0  0.91325  0.42267  0.35306  1.0000
  N   N102      1.0  0.96885  0.12467  0.34252  1.0000
  C   C1843     1.0  0.85820  0.43238  0.42596  1.0000
  H   H3276     1.0  0.90554  0.39120  0.39851  1.0000
  H   H3277     1.0  0.88894  0.41018  0.37082  1.0000
  H   H3278     1.0  0.88090  0.46238  0.39839  1.0000
  H   H3279     1.0  0.87921  0.40279  0.41633  1.0000
  H   H3280     1.0  0.86592  0.41744  0.39495  1.0000
  H   H3281     1.0  0.92341  0.43947  0.35159  1.0000
  H   H3282     1.0  0.92102  0.40338  0.35710  1.0000
  H   H3283     1.0  0.77067  0.41969  0.48188  1.0000
  H   H3284     1.0  0.00180  0.18089  0.63183  1.0000
  H   H3285     1.0  0.99719  0.27148  0.56865  1.0000
  H   H3286     1.0  0.96397  0.26838  0.63895  1.0000
  S   S414      1.0  0.80148  0.24382  0.39921  1.0000
  H   H3287     1.0  0.84891  0.46494  0.38318  1.0000
  H   H3288     1.0  0.88833  0.44550  0.36432  1.0000
  H   H3289     1.0  0.78954  0.16728  0.44347  1.0000
  H   H3290     1.0  0.98315  0.22404  0.63030  1.0000
  H   H3291     1.0  0.76302  0.32576  0.60996  1.0000
  H   H3292     1.0  0.84701  0.14934  0.34208  1.0000
  H   H3293     1.0  0.96242  0.24712  0.60902  1.0000
  H   H3294     1.0  0.77777  0.99466  0.57138  1.0000
  H   H3295     1.0  0.89195  0.29120  0.37569  1.0000
  H   H3296     1.0  0.80550  0.42395  0.47877  1.0000
  H   H3297     1.0  0.78738  0.42309  0.44566  1.0000
  C   C1844     1.0  0.76804  0.42994  0.37025  1.0000
  S   S415      1.0  0.77129  0.12397  0.37731  1.0000
  H   H3298     1.0  0.77146  0.04379  0.63306  1.0000
  H   H3299     1.0  0.78455  0.99940  0.63259  1.0000
  H   H3300     1.0  0.96253  0.15102  0.66826  1.0000
  C   C1845     1.0  0.83862  0.46655  0.37030  1.0000
  H   H3301     1.0  0.89427  0.16822  0.37677  1.0000
  C   C1846     1.0  0.96753  0.15579  0.34066  1.0000
  C   C1847     1.0  0.80167  0.19474  0.37745  1.0000
  H   H3302     1.0  0.00122  0.40062  0.47456  1.0000
  C   C1848     1.0  0.87595  0.20484  0.37652  1.0000
  C   C1849     1.0  0.99230  0.41236  0.46330  1.0000
  H   H3303     1.0  0.89286  0.20680  0.40470  1.0000
  C   C1850     1.0  0.83472  0.43787  0.36170  1.0000
  H   H3304     1.0  0.80152  0.45674  0.41257  1.0000
  C   C1851     1.0  0.96853  0.25994  0.59613  1.0000
  H   H3305     1.0  0.77769  0.37115  0.60883  1.0000
  H   H3306     1.0  0.98985  0.07275  0.34400  1.0000
  H   H3307     1.0  0.93264  0.38475  0.44870  1.0000
  N   N103      1.0  0.87731  0.24546  0.40304  1.0000
  H   H3308     1.0  0.91652  0.30002  0.42767  1.0000
  H   H3309     1.0  0.00419  0.45213  0.46903  1.0000
  H   H3310     1.0  0.86978  0.21848  0.36415  1.0000
  H   H3311     1.0  0.89289  0.45212  0.42134  1.0000
  C   C1852     1.0  0.76934  0.17485  0.39684  1.0000
  H   H3312     1.0  0.97678  0.43292  0.48914  1.0000
  H   H3313     1.0  0.93686  0.27811  0.42294  1.0000
  H   H3314     1.0  0.91769  0.24035  0.41164  1.0000
  C   C1853     1.0  0.76554  0.36717  0.59870  1.0000
  H   H3315     1.0  0.98519  0.30182  0.57793  1.0000
  H   H3316     1.0  0.86672  0.21685  0.42662  1.0000
  H   H3317     1.0  0.92744  0.40480  0.39193  1.0000
  H   H3318     1.0  0.00026  0.29632  0.62437  1.0000
  H   H3319     1.0  0.92214  0.46436  0.40772  1.0000
  H   H3320     1.0  0.98050  0.40462  0.36041  1.0000
  C   C1854     1.0  0.98808  0.00056  0.52451  1.0000
  C   C1855     1.0  0.98879  0.08467  0.35897  1.0000
  C   C1856     1.0  0.81927  0.38845  0.34383  1.0000
  H   H3321     1.0  0.89070  0.25927  0.36159  1.0000
  H   H3322     1.0  0.98650  0.12694  0.36973  1.0000
  C   C1857     1.0  0.97782  0.27753  0.64116  1.0000
  C   C1858     1.0  0.00206  0.43871  0.45507  1.0000
  H   H3323     1.0  0.82026  0.98409  0.61160  1.0000
  H   H3324     1.0  0.96114  0.16471  0.35543  1.0000
  H   H3325     1.0  0.80295  0.15578  0.36073  1.0000
  H   H3326     1.0  0.76772  0.21409  0.41319  1.0000
  C   C1859     1.0  0.88826  0.18312  0.36515  1.0000
  H   H3327     1.0  0.81241  0.05113  0.42602  1.0000
  C   C1860     1.0  0.91419  0.40953  0.40093  1.0000
  C   C1861     1.0  0.97514  0.30037  0.65762  1.0000
  S   S416      1.0  0.76600  0.31115  0.41852  1.0000
  H   H3328     1.0  0.84427  0.22398  0.45506  1.0000
  H   H3329     1.0  0.82935  0.42513  0.37517  1.0000
  H   H3330     1.0  0.97567  0.00737  0.53329  1.0000
  C   C1862     1.0  0.81764  0.33634  0.34713  1.0000
  C   C1863     1.0  0.86902  0.26555  0.38718  1.0000
  H   H3331     1.0  0.85233  0.11455  0.35037  1.0000
  H   H3332     1.0  0.97749  0.01008  0.65801  1.0000
  H   H3333     1.0  0.95876  0.27812  0.59486  1.0000
  H   H3334     1.0  0.97704  0.07682  0.36882  1.0000
  H   H3335     1.0  0.98895  0.39852  0.45005  1.0000
  H   H3336     1.0  0.94032  0.37724  0.42188  1.0000
  C   C1864     1.0  0.97402  0.41988  0.47513  1.0000
  C   C1865     1.0  0.98624  0.28894  0.62009  1.0000
  C   C1866     1.0  0.94920  0.22770  0.57408  1.0000
  C   C1867     1.0  0.85038  0.25492  0.43060  1.0000
  C   C1868     1.0  0.79543  0.16820  0.37238  1.0000
  C   C1869     1.0  0.83685  0.24006  0.44558  1.0000
  C   C1870     1.0  0.98626  0.11598  0.35426  1.0000
  C   C1871     1.0  0.99278  0.21925  0.61680  1.0000
  C   C1872     1.0  0.77742  0.41103  0.38351  1.0000
  H   H3337     1.0  0.78983  0.06259  0.43600  1.0000
  H   H3338     1.0  0.83290  0.38727  0.35175  1.0000
  H   H3339     1.0  0.92041  0.26942  0.44381  1.0000
  C   C1873     1.0  0.77934  0.15787  0.38227  1.0000
  C   C1874     1.0  0.89015  0.25979  0.41807  1.0000
  C   C1875     1.0  0.79184  0.21154  0.39226  1.0000
  C   C1876     1.0  0.78535  0.44095  0.45635  1.0000
  H   H3340     1.0  0.98133  0.45553  0.35617  1.0000
  H   H3341     1.0  0.90014  0.22825  0.38356  1.0000
  H   H3342     1.0  0.86449  0.19398  0.38492  1.0000
  H   H3343     1.0  0.95409  0.11917  0.37267  1.0000
  H   H3344     1.0  0.95100  0.09217  0.35440  1.0000
  H   H3345     1.0  0.99595  0.06850  0.66254  1.0000
  H   H3346     1.0  0.77874  0.36893  0.49630  1.0000
  C   C1877     1.0  0.80319  0.44298  0.46914  1.0000
  C   C1878     1.0  0.87120  0.29018  0.35157  1.0000
  H   H3347     1.0  0.84738  0.41646  0.42807  1.0000
  H   H3348     1.0  0.99514  0.02607  0.64124  1.0000
  C   C1879     1.0  0.77547  0.20152  0.40177  1.0000
  H   H3349     1.0  0.82571  0.23051  0.43634  1.0000
  C   C1880     1.0  0.00209  0.98500  0.53503  1.0000
  C   C1881     1.0  0.00122  0.24551  0.60650  1.0000
  S   S417      1.0  0.77394  0.37541  0.38039  1.0000
  H   H3350     1.0  0.76776  0.45590  0.48175  1.0000
  H   H3351     1.0  0.86208  0.30702  0.35809  1.0000
  C   C1882     1.0  0.00226  0.47438  0.53095  1.0000
  C   C1883     1.0  0.00811  0.19980  0.62505  1.0000
  H   H3352     1.0  0.81741  0.31678  0.33809  1.0000
  S   S418      1.0  0.76581  0.04966  0.35177  1.0000
  C   C1884     1.0  0.93275  0.12755  0.34950  1.0000
  C   C1885     1.0  0.99269  0.01367  0.65592  1.0000
  H   H3353     1.0  0.91713  0.09106  0.35795  1.0000
  C   C1886     1.0  0.91705  0.11333  0.36184  1.0000
  H   H3354     1.0  0.76713  0.37907  0.58363  1.0000
  H   H3355     1.0  0.90758  0.48030  0.36309  1.0000
  H   H3356     1.0  0.89983  0.19306  0.35611  1.0000
  C   C1887     1.0  0.78189  0.99454  0.61564  1.0000
  H   H3357     1.0  0.93172  0.14983  0.35337  1.0000
  C   C1888     1.0  0.81992  0.43962  0.34398  1.0000
  C   C1889     1.0  0.76798  0.43769  0.47120  1.0000
  H   H3358     1.0  0.80233  0.46112  0.47983  1.0000
  H   H3359     1.0  0.84815  0.42846  0.35620  1.0000
  C   C1890     1.0  0.76542  0.37024  0.50474  1.0000
  C   C1891     1.0  0.76271  0.38898  0.52169  1.0000
  S   S419      1.0  0.80511  0.01597  0.33820  1.0000
  H   H3360     1.0  0.00930  0.40122  0.42375  1.0000
  H   H3361     1.0  0.00590  0.08970  0.38690  1.0000
  H   H3362     1.0  0.86241  0.27510  0.34345  1.0000
  C   C1892     1.0  0.00657  0.07875  0.37142  1.0000
  H   H3363     1.0  0.00794  0.05626  0.37474  1.0000
  H   H3364     1.0  0.88102  0.29914  0.33963  1.0000
  H   H3365     1.0  0.82557  0.47642  0.37685  1.0000
  H   H3366     1.0  0.00872  0.23830  0.59178  1.0000
  C   C1893     1.0  0.76290  0.98880  0.57088  1.0000
  H   H3367     1.0  0.01228  0.32641  0.55809  1.0000
  Fe  Fe209     1.0  0.92109  0.31338  0.93115  1.0000
  S   S420      1.0  0.93725  0.32235  0.90117  1.0000
  S   S421      1.0  0.89016  0.32255  0.93372  1.0000
  Fe  Fe210     1.0  0.95553  0.29139  0.95492  1.0000
  S   S422      1.0  0.97455  0.29892  0.92642  1.0000
  S   S423      1.0  0.96034  0.27238  0.98797  1.0000
  Fe  Fe211     1.0  0.95863  0.33979  0.92253  1.0000
  S   S424      1.0  0.97178  0.38216  0.91760  1.0000
  Fe  Fe212     1.0  0.95131  0.28107  0.90740  1.0000
  S   S425      1.0  0.95274  0.25105  0.87990  1.0000
  S   S426      1.0  0.94141  0.33336  0.95245  1.0000
  S   S427      1.0  0.93342  0.27107  0.93585  1.0000
  Fe  Fe213     1.0  0.95630  0.09156  0.86679  1.0000
  S   S428      1.0  0.93817  0.10520  0.83995  1.0000
  S   S429      1.0  0.96476  0.12215  0.89192  1.0000
  Fe  Fe214     1.0  0.95806  0.03103  0.85237  1.0000
  S   S430      1.0  0.94027  0.04134  0.82408  1.0000
  S   S431      1.0  0.77473  0.09819  0.99516  1.0000
  Fe  Fe215     1.0  0.95752  0.07930  0.81926  1.0000
  S   S432      1.0  0.96304  0.09659  0.78568  1.0000
  Fe  Fe216     1.0  0.92271  0.06657  0.84701  1.0000
  S   S433      1.0  0.89123  0.06599  0.84551  1.0000
  S   S434      1.0  0.97684  0.06750  0.84588  1.0000
  S   S435      1.0  0.93933  0.05430  0.87557  1.0000
  H   H3368     1.0  0.94711  0.16827  0.99438  1.0000
  C   C1894     1.0  0.79037  0.18825  0.95457  1.0000
  Fe  Fe217     1.0  0.81450  0.29107  0.85305  1.0000
  S   S436      1.0  0.79606  0.31057  0.87844  1.0000
  S   S437      1.0  0.84520  0.27909  0.85559  1.0000
  Fe  Fe218     1.0  0.78294  0.28860  0.82047  1.0000
  Fe  Fe219     1.0  0.78499  0.33794  0.85216  1.0000
  Fe  Fe220     1.0  0.77520  0.27957  0.86782  1.0000
  H   H3369     1.0  0.95333  0.10925  0.93829  1.0000
  S   S438      1.0  0.80482  0.31988  0.82730  1.0000
  S   S439      1.0  0.79441  0.25829  0.84435  1.0000
  Fe  Fe221     1.0  0.81346  0.08612  0.92920  1.0000
  S   S440      1.0  0.79787  0.06770  0.90249  1.0000
  S   S441      1.0  0.84350  0.09973  0.92752  1.0000
  C   C1895     1.0  0.89229  0.46962  0.83679  1.0000
  Fe  Fe222     1.0  0.78686  0.03738  0.92682  1.0000
  H   H3370     1.0  0.86992  0.02939  0.90660  1.0000
  H   H3371     1.0  0.00835  0.38585  0.86741  1.0000
  S   S442      1.0  0.80388  0.05494  0.95320  1.0000
  S   S443      1.0  0.79084  0.11649  0.93848  1.0000
  H   H3372     1.0  0.79485  0.12578  0.81571  1.0000
  C   C1896     1.0  0.78671  0.43180  0.90480  1.0000
  C   C1897     1.0  0.97319  0.13741  0.96873  1.0000
  H   H3373     1.0  0.82084  0.98315  0.88243  1.0000
  C   C1898     1.0  0.78459  0.45914  0.89728  1.0000
  C   C1899     1.0  0.77542  0.20372  0.88927  1.0000
  H   H3374     1.0  0.97929  0.15784  0.68841  1.0000
  H   H3375     1.0  0.86239  0.45884  0.93160  1.0000
  H   H3376     1.0  0.78809  0.21466  0.88557  1.0000
  H   H3377     1.0  0.78873  0.16323  0.88776  1.0000
  C   C1900     1.0  0.87829  0.07669  0.86818  1.0000
  C   C1901     1.0  0.88706  0.08297  0.88715  1.0000
  C   C1902     1.0  0.87625  0.09020  0.90527  1.0000
  C   C1903     1.0  0.85667  0.09105  0.90451  1.0000
  C   C1904     1.0  0.84794  0.08515  0.88547  1.0000
  C   C1905     1.0  0.85873  0.07817  0.86732  1.0000
  H   H3378     1.0  0.90214  0.08206  0.88792  1.0000
  H   H3379     1.0  0.88306  0.09483  0.91997  1.0000
  H   H3380     1.0  0.83290  0.08631  0.88463  1.0000
  H   H3381     1.0  0.85190  0.07355  0.85263  1.0000
  C   C1906     1.0  0.98266  0.11335  0.77421  1.0000
  C   C1907     1.0  0.98029  0.12913  0.75554  1.0000
  C   C1908     1.0  0.99557  0.14196  0.74538  1.0000
  C   C1909     1.0  0.85364  0.46520  0.91786  1.0000
  C   C1910     1.0  0.95549  0.11984  0.97187  1.0000
  C   C1911     1.0  0.77259  0.30862  0.71434  1.0000
  H   H3382     1.0  0.96649  0.13150  0.74894  1.0000
  H   H3383     1.0  0.80169  0.02069  0.86747  1.0000
  H   H3384     1.0  0.99140  0.15401  0.81562  1.0000
  C   C1912     1.0  0.87767  0.30996  0.91225  1.0000
  C   C1913     1.0  0.85844  0.31563  0.91102  1.0000
  C   C1914     1.0  0.84831  0.30603  0.89379  1.0000
  C   C1915     1.0  0.85740  0.29097  0.87762  1.0000
  C   C1916     1.0  0.87664  0.28526  0.87891  1.0000
  C   C1917     1.0  0.88675  0.29454  0.89624  1.0000
  H   H3385     1.0  0.85134  0.32737  0.92346  1.0000
  H   H3386     1.0  0.83348  0.31028  0.89309  1.0000
  H   H3387     1.0  0.88385  0.27406  0.86630  1.0000
  H   H3388     1.0  0.90158  0.28999  0.89710  1.0000
  C   C1918     1.0  0.95321  0.21521  0.88487  1.0000
  C   C1919     1.0  0.94823  0.19729  0.86864  1.0000
  C   C1920     1.0  0.95090  0.16862  0.87094  1.0000
  C   C1921     1.0  0.95890  0.15765  0.88935  1.0000
  C   C1922     1.0  0.96321  0.17555  0.90586  1.0000
  C   C1923     1.0  0.96009  0.20419  0.90384  1.0000
  H   H3389     1.0  0.94265  0.20566  0.85405  1.0000
  H   H3390     1.0  0.94732  0.15520  0.85818  1.0000
  H   H3391     1.0  0.96949  0.16721  0.91998  1.0000
  H   H3392     1.0  0.96397  0.21786  0.91644  1.0000
  C   C1924     1.0  0.96302  0.41028  0.90206  1.0000
  C   C1925     1.0  0.96846  0.43727  0.90668  1.0000
  C   C1926     1.0  0.96287  0.45991  0.89385  1.0000
  C   C1927     1.0  0.95226  0.45567  0.87577  1.0000
  C   C1928     1.0  0.94685  0.42870  0.87114  1.0000
  C   C1929     1.0  0.95192  0.40622  0.88434  1.0000
  H   H3393     1.0  0.97710  0.44066  0.92029  1.0000
  H   H3394     1.0  0.79951  0.29812  0.69966  1.0000
  H   H3395     1.0  0.81542  0.19459  0.97296  1.0000
  H   H3396     1.0  0.77183  0.34146  0.73788  1.0000
  H   H3397     1.0  0.81981  0.18338  0.94601  1.0000
  H   H3398     1.0  0.84532  0.40931  0.91985  1.0000
  H   H3399     1.0  0.76781  0.31923  0.69975  1.0000
  C   C1930     1.0  0.95235  0.19325  0.96613  1.0000
  H   H3400     1.0  0.89346  0.23152  0.82689  1.0000
  H   H3401     1.0  0.95132  0.17853  0.95291  1.0000
  C   C1931     1.0  0.81711  0.02068  0.86500  1.0000
  C   C1932     1.0  0.90647  0.98758  0.86451  1.0000
  H   H3402     1.0  0.79936  0.29732  0.72833  1.0000
  C   C1933     1.0  0.95405  0.09879  0.95403  1.0000
  H   H3403     1.0  0.01056  0.22078  0.95745  1.0000
  C   C1934     1.0  0.78271  0.19523  0.81317  1.0000
  H   H3404     1.0  0.99268  0.41367  0.82714  1.0000
  C   C1935     1.0  0.83421  0.45174  0.92067  1.0000
  N   N104      1.0  0.00464  0.17890  0.83941  1.0000
  H   H3405     1.0  0.88330  0.46671  0.82283  1.0000
  C   C1936     1.0  0.79522  0.11537  0.84874  1.0000
  C   C1937     1.0  0.83597  0.42255  0.92988  1.0000
  H   H3406     1.0  0.79616  0.19216  0.78148  1.0000
  H   H3407     1.0  0.82173  0.04237  0.86487  1.0000
  C   C1938     1.0  0.78303  0.41326  0.86917  1.0000
  S   S444      1.0  0.96885  0.98599  0.85524  1.0000
  H   H3408     1.0  0.96913  0.20635  0.82904  1.0000
  H   H3409     1.0  0.00284  0.16014  0.94831  1.0000
  H   H3410     1.0  0.98664  0.18895  0.94671  1.0000
  Fe  Fe223     1.0  0.77965  0.08410  0.96064  1.0000
  H   H3411     1.0  0.82458  0.46357  0.93133  1.0000
  H   H3412     1.0  0.77927  0.15630  0.75084  1.0000
  H   H3413     1.0  0.95866  0.04815  0.74480  1.0000
  H   H3414     1.0  0.82214  0.01384  0.89818  1.0000
  H   H3415     1.0  0.99347  0.15439  0.73125  1.0000
  H   H3416     1.0  0.97680  0.02574  0.71454  1.0000
  H   H3417     1.0  0.82198  0.41312  0.93068  1.0000
  C   C1939     1.0  0.99152  0.05766  0.67749  1.0000
  C   C1940     1.0  0.78599  0.40905  0.89090  1.0000
  C   C1941     1.0  0.82641  0.00430  0.88291  1.0000
  H   H3418     1.0  0.80454  0.15162  0.83269  1.0000
  H   H3419     1.0  0.76699  0.98375  0.88769  1.0000
  H   H3420     1.0  0.97604  0.05594  0.67674  1.0000
  H   H3421     1.0  0.79007  0.20987  0.94863  1.0000
  H   H3422     1.0  0.92820  0.21573  0.95407  1.0000
  C   C1942     1.0  0.99115  0.46801  0.82353  1.0000
  H   H3423     1.0  0.00867  0.47210  0.88800  1.0000
  N   N105      1.0  0.99670  0.07434  0.69667  1.0000
  C   C1943     1.0  0.76432  0.32203  0.73497  1.0000
  Fe  Fe224     1.0  0.77437  0.09607  0.91367  1.0000
  C   C1944     1.0  0.99851  0.18013  0.95565  1.0000
  N   N106      1.0  0.88328  0.40042  0.86773  1.0000
  C   C1945     1.0  0.86449  0.39075  0.87588  1.0000
  C   C1946     1.0  0.89579  0.40725  0.88606  1.0000
  C   C1947     1.0  0.87982  0.42665  0.85509  1.0000
  C   C1948     1.0  0.89274  0.37962  0.85314  1.0000
  C   C1949     1.0  0.89678  0.35084  0.86288  1.0000
  C   C1950     1.0  0.85069  0.38099  0.85893  1.0000
  C   C1951     1.0  0.89751  0.44182  0.84693  1.0000
  C   C1952     1.0  0.89376  0.38996  0.90682  1.0000
  C   C1953     1.0  0.90971  0.39512  0.92197  1.0000
  C   C1954     1.0  0.90380  0.33046  0.84593  1.0000
  C   C1955     1.0  0.83158  0.37514  0.86908  1.0000
  C   C1956     1.0  0.78111  0.44062  0.86162  1.0000
  H   H3424     1.0  0.85741  0.40747  0.88524  1.0000
  H   H3425     1.0  0.86595  0.37306  0.88707  1.0000
  H   H3426     1.0  0.91074  0.40593  0.88083  1.0000
  H   H3427     1.0  0.89334  0.42900  0.89122  1.0000
  H   H3428     1.0  0.87119  0.44157  0.86474  1.0000
  H   H3429     1.0  0.87163  0.42257  0.84068  1.0000
  H   H3430     1.0  0.88446  0.37706  0.83852  1.0000
  H   H3431     1.0  0.90654  0.38712  0.84748  1.0000
  H   H3432     1.0  0.88409  0.34226  0.87047  1.0000
  H   H3433     1.0  0.90792  0.35217  0.87479  1.0000
  H   H3434     1.0  0.84832  0.39659  0.84629  1.0000
  H   H3435     1.0  0.85602  0.36160  0.85142  1.0000
  H   H3436     1.0  0.90517  0.42945  0.83464  1.0000
  H   H3437     1.0  0.90726  0.44588  0.85992  1.0000
  H   H3438     1.0  0.88043  0.39566  0.91523  1.0000
  H   H3439     1.0  0.89369  0.36761  0.90366  1.0000
  H   H3440     1.0  0.91058  0.41739  0.92566  1.0000
  H   H3441     1.0  0.90730  0.38354  0.93706  1.0000
  H   H3442     1.0  0.92325  0.38766  0.91492  1.0000
  H   H3443     1.0  0.89264  0.32663  0.83436  1.0000
  H   H3444     1.0  0.91635  0.33837  0.83741  1.0000
  H   H3445     1.0  0.90775  0.31053  0.85361  1.0000
  H   H3446     1.0  0.82497  0.39438  0.87548  1.0000
  H   H3447     1.0  0.82224  0.36677  0.85693  1.0000
  H   H3448     1.0  0.83286  0.35974  0.88212  1.0000
  C   C1957     1.0  0.00027  0.02823  0.67526  1.0000
  H   H3449     1.0  0.77090  0.24087  0.97127  1.0000
  C   C1958     1.0  0.86414  0.01052  0.91415  1.0000
  H   H3450     1.0  0.85057  0.99247  0.86456  1.0000
  C   C1959     1.0  0.77703  0.18533  0.97423  1.0000
  H   H3451     1.0  0.99990  0.36877  0.84426  1.0000
  H   H3452     1.0  0.84149  0.42309  0.94625  1.0000
  C   C1960     1.0  0.99853  0.38775  0.85399  1.0000
  C   C1961     1.0  0.98754  0.16896  0.82832  1.0000
  C   C1962     1.0  0.97316  0.03982  0.74653  1.0000
  H   H3453     1.0  0.96630  0.08428  0.95396  1.0000
  H   H3454     1.0  0.77432  0.16365  0.84796  1.0000
  H   H3455     1.0  0.82054  0.01120  0.84934  1.0000
  H   H3456     1.0  0.78155  0.20122  0.98543  1.0000
  H   H3457     1.0  0.00085  0.11836  0.83790  1.0000
  H   H3458     1.0  0.79466  0.12538  0.86455  1.0000
  C   C1963     1.0  0.93295  0.20663  0.96933  1.0000
  C   C1964     1.0  0.85605  0.03501  0.94859  1.0000
  C   C1965     1.0  0.95861  0.17825  0.80651  1.0000
  H   H3459     1.0  0.99751  0.01532  0.68945  1.0000
  H   H3460     1.0  0.97861  0.15729  0.83980  1.0000
  H   H3461     1.0  0.95584  0.10812  0.98706  1.0000
  C   C1966     1.0  0.95909  0.17914  0.98685  1.0000
  C   C1967     1.0  0.79307  0.13686  0.83097  1.0000
  H   H3462     1.0  0.84452  0.04442  0.95836  1.0000
  H   H3463     1.0  0.98848  0.18548  0.86837  1.0000
  H   H3464     1.0  0.89071  0.47520  0.91744  1.0000
  C   C1968     1.0  0.99505  0.10450  0.69051  1.0000
  H   H3465     1.0  0.91005  0.23149  0.84803  1.0000
  C   C1969     1.0  0.88932  0.00100  0.87534  1.0000
  H   H3466     1.0  0.78398  0.10000  0.84814  1.0000
  C   C1970     1.0  0.99342  0.17569  0.97953  1.0000
  H   H3467     1.0  0.94985  0.16682  0.81822  1.0000
  H   H3468     1.0  0.94261  0.13304  0.97170  1.0000
  H   H3469     1.0  0.80894  0.10434  0.84698  1.0000
  C   C1971     1.0  0.98383  0.04016  0.72522  1.0000
  H   H3470     1.0  0.96459  0.11248  0.69370  1.0000
  H   H3471     1.0  0.82735  0.45035  0.90506  1.0000
  H   H3472     1.0  0.93902  0.42502  0.85697  1.0000
  H   H3473     1.0  0.98562  0.12310  0.96839  1.0000
  H   H3474     1.0  0.89437  0.01676  0.88642  1.0000
  H   H3475     1.0  0.94976  0.19456  0.79902  1.0000
  H   H3476     1.0  0.78020  0.16529  0.98242  1.0000
  C   C1972     1.0  0.97507  0.19133  0.81745  1.0000
  N   N107      1.0  0.97590  0.15984  0.98486  1.0000
  C   C1973     1.0  0.78191  0.46338  0.87550  1.0000
  H   H3477     1.0  0.96879  0.07343  0.71061  1.0000
  C   C1974     1.0  0.81453  0.21326  0.80188  1.0000
  H   H3478     1.0  0.80826  0.23405  0.79881  1.0000
  H   H3479     1.0  0.81968  0.21238  0.81843  1.0000
  H   H3480     1.0  0.82665  0.21014  0.79079  1.0000
  N   N108      1.0  0.88067  0.18729  0.89278  1.0000
  C   C1975     1.0  0.88919  0.16437  0.90604  1.0000
  C   C1976     1.0  0.86142  0.17895  0.88624  1.0000
  C   C1977     1.0  0.89257  0.18994  0.87274  1.0000
  C   C1978     1.0  0.87993  0.21487  0.90397  1.0000
  C   C1979     1.0  0.87767  0.21443  0.92860  1.0000
  C   C1980     1.0  0.91036  0.16684  0.91034  1.0000
  C   C1981     1.0  0.88454  0.20925  0.85521  1.0000
  C   C1982     1.0  0.84680  0.17451  0.90435  1.0000
  C   C1983     1.0  0.82881  0.16292  0.89571  1.0000
  C   C1984     1.0  0.87490  0.24358  0.93734  1.0000
  C   C1985     1.0  0.91656  0.14767  0.92836  1.0000
  C   C1986     1.0  0.89983  0.21873  0.83968  1.0000
  H   H3481     1.0  0.88752  0.14420  0.89802  1.0000
  H   H3482     1.0  0.88169  0.16210  0.92153  1.0000
  H   H3483     1.0  0.85495  0.19489  0.87572  1.0000
  H   H3484     1.0  0.86252  0.15963  0.87670  1.0000
  H   H3485     1.0  0.89522  0.16931  0.86536  1.0000
  H   H3486     1.0  0.90662  0.19771  0.87664  1.0000
  H   H3487     1.0  0.89287  0.22663  0.90052  1.0000
  H   H3488     1.0  0.86841  0.22817  0.89754  1.0000
  H   H3489     1.0  0.89038  0.20544  0.93601  1.0000
  H   H3490     1.0  0.86567  0.20212  0.93405  1.0000
  H   H3491     1.0  0.91851  0.16068  0.89588  1.0000
  H   H3492     1.0  0.91404  0.18827  0.91430  1.0000
  H   H3493     1.0  0.87752  0.22780  0.86210  1.0000
  H   H3494     1.0  0.87404  0.19812  0.84597  1.0000
  H   H3495     1.0  0.85194  0.15983  0.91659  1.0000
  H   H3496     1.0  0.84299  0.19453  0.91189  1.0000
  H   H3497     1.0  0.82248  0.17745  0.88401  1.0000
  H   H3498     1.0  0.83164  0.14267  0.88803  1.0000
  H   H3499     1.0  0.81861  0.15978  0.90901  1.0000
  H   H3500     1.0  0.87304  0.24274  0.95489  1.0000
  H   H3501     1.0  0.88734  0.25613  0.93355  1.0000
  H   H3502     1.0  0.86231  0.25385  0.93051  1.0000
  H   H3503     1.0  0.93187  0.14922  0.93033  1.0000
  H   H3504     1.0  0.90939  0.15355  0.94355  1.0000
  H   H3505     1.0  0.91347  0.12593  0.92457  1.0000
  H   H3506     1.0  0.90726  0.20070  0.83234  1.0000
  H   H3507     1.0  0.01215  0.43685  0.86638  1.0000
  H   H3508     1.0  0.90521  0.48009  0.83135  1.0000
  S   S445      1.0  0.77938  0.27643  0.78552  1.0000
  H   H3509     1.0  0.84207  0.47792  0.87764  1.0000
  H   H3510     1.0  0.96192  0.19631  0.99788  1.0000
  N   N109      1.0  0.76905  0.17190  0.81469  1.0000
  H   H3511     1.0  0.76499  0.19281  0.77410  1.0000
  H   H3512     1.0  0.99987  0.26578  0.97512  1.0000
  H   H3513     1.0  0.98044  0.05239  0.75836  1.0000
  H   H3514     1.0  0.96367  0.16378  0.79393  1.0000
  H   H3515     1.0  0.77778  0.25268  0.74393  1.0000
  H   H3516     1.0  0.94789  0.38556  0.88037  1.0000
  C   C1987     1.0  0.77582  0.17461  0.89071  1.0000
  C   C1988     1.0  0.80020  0.19095  0.79840  1.0000
  H   H3517     1.0  0.86371  0.01977  0.95862  1.0000
  H   H3518     1.0  0.85250  0.02480  0.87713  1.0000
  H   H3519     1.0  0.98779  0.44035  0.86188  1.0000
  H   H3520     1.0  0.86050  0.45484  0.90392  1.0000
  C   C1989     1.0  0.99788  0.25642  0.99064  1.0000
  S   S446      1.0  0.78146  0.38542  0.85074  1.0000
  H   H3521     1.0  0.97247  0.01838  0.75274  1.0000
  C   C1990     1.0  0.98350  0.06944  0.71526  1.0000
  H   H3522     1.0  0.98591  0.08456  0.72807  1.0000
  H   H3523     1.0  0.83926  0.03642  0.92070  1.0000
  H   H3524     1.0  0.78744  0.38825  0.89706  1.0000
  C   C1991     1.0  0.00170  0.43977  0.85366  1.0000
  H   H3525     1.0  0.80728  0.17074  0.80092  1.0000
  H   H3526     1.0  0.98314  0.20271  0.80511  1.0000
  H   H3527     1.0  0.76833  0.28679  0.71342  1.0000
  H   H3528     1.0  0.88118  0.01161  0.86277  1.0000
  C   C1992     1.0  0.76799  0.15566  0.79437  1.0000
  C   C1993     1.0  0.76487  0.24783  0.75223  1.0000
  H   H3529     1.0  0.97792  0.45751  0.82809  1.0000
  H   H3530     1.0  0.00596  0.16495  0.98625  1.0000
  H   H3531     1.0  0.78190  0.14728  0.78934  1.0000
  H   H3532     1.0  0.78763  0.20036  0.82933  1.0000
  C   C1994     1.0  0.81056  0.18087  0.96025  1.0000
  H   H3533     1.0  0.92262  0.19111  0.97455  1.0000
  H   H3534     1.0  0.99816  0.03235  0.72832  1.0000
  H   H3535     1.0  0.96203  0.20986  0.96138  1.0000
  H   H3536     1.0  0.00613  0.10968  0.67846  1.0000
  H   H3537     1.0  0.94117  0.08670  0.95640  1.0000
  C   C1995     1.0  0.79394  0.30858  0.71419  1.0000
  H   H3538     1.0  0.77878  0.44423  0.84488  1.0000
  C   C1996     1.0  0.84810  0.02095  0.92916  1.0000
  H   H3539     1.0  0.99909  0.20757  0.90208  1.0000
  H   H3540     1.0  0.97247  0.14588  0.95241  1.0000
  C   C1997     1.0  0.00055  0.11044  0.78257  1.0000
  C   C1998     1.0  0.77393  0.15239  0.83270  1.0000
  N   N110      1.0  0.00471  0.46654  0.84173  1.0000
  H   H3541     1.0  0.81176  0.15908  0.96575  1.0000
  H   H3542     1.0  0.99744  0.11787  0.70440  1.0000
  S   S447      1.0  0.79215  0.99012  0.92407  1.0000
  H   H3543     1.0  0.77569  0.21459  0.80741  1.0000
  H   H3544     1.0  0.78865  0.42816  0.92160  1.0000
  C   C1999     1.0  0.97633  0.14455  0.67463  1.0000
  H   H3545     1.0  0.99492  0.23909  0.88708  1.0000
  H   H3546     1.0  0.79905  0.33002  0.71421  1.0000
  H   H3547     1.0  0.86568  0.05160  0.94365  1.0000
  H   H3548     1.0  0.99271  0.19628  0.98726  1.0000
  C   C2000     1.0  0.00557  0.22304  0.89134  1.0000
  C   C2001     1.0  0.84796  0.00332  0.87994  1.0000
  C   C2002     1.0  0.97590  0.11432  0.68149  1.0000
  H   H3549     1.0  0.83913  0.00430  0.93526  1.0000
  H   H3550     1.0  0.99701  0.45655  0.80953  1.0000
  H   H3551     1.0  0.00261  0.09784  0.79662  1.0000
  H   H3552     1.0  0.96715  0.48048  0.89768  1.0000
  N   N111      1.0  0.85931  0.98985  0.89741  1.0000
  C   C2003     1.0  0.98014  0.25711  0.00036  1.0000
  H   H3553     1.0  0.78645  0.17499  0.94125  1.0000
  H   H3554     1.0  0.87569  0.00219  0.92411  1.0000
  H   H3555     1.0  0.98980  0.21526  0.85194  1.0000
  C   C2004     1.0  0.00285  0.41301  0.84022  1.0000
  H   H3556     1.0  0.91513  0.00373  0.85686  1.0000
  C   C2005     1.0  0.99806  0.19709  0.85764  1.0000
  H   H3557     1.0  0.76885  0.30765  0.74785  1.0000
  H   H3558     1.0  0.98401  0.38921  0.86052  1.0000
  H   H3559     1.0  0.93335  0.22331  0.98132  1.0000
  H   H3560     1.0  0.76704  0.25921  0.93523  1.0000
  H   H3561     1.0  0.01018  0.14987  0.86524  1.0000
  H   H3562     1.0  0.76287  0.33747  0.77526  1.0000
  H   H3563     1.0  0.00971  0.21586  0.82098  1.0000
  H   H3564     1.0  0.01169  0.17490  0.79450  1.0000
  C   C2006     1.0  0.76396  0.15703  0.75417  1.0000
  H   H3565     1.0  0.76279  0.13684  0.83488  1.0000
  H   H3566     1.0  0.94627  0.98198  0.89490  1.0000
  H   H3567     1.0  0.96955  0.29152  0.67273  1.0000
  H   H3568     1.0  0.78461  0.58213  0.08860  1.0000
  H   H3569     1.0  0.80264  0.54128  0.03806  1.0000
  H   H3570     1.0  0.98964  0.83281  0.11680  1.0000
  H   H3571     1.0  0.82977  0.85565  0.29977  1.0000
  H   H3572     1.0  0.92837  0.51413  0.31612  1.0000
  H   H3573     1.0  0.82195  0.94186  0.26857  1.0000
  S   S448      1.0  0.97795  0.82768  0.28463  1.0000
  C   C2007     1.0  0.97883  0.72825  0.03054  1.0000
  H   H3574     1.0  0.95773  0.94991  0.32501  1.0000
  C   C2008     1.0  0.76325  0.91600  0.29889  1.0000
  H   H3575     1.0  0.94229  0.71635  0.21242  1.0000
  C   C2009     1.0  0.99430  0.85038  0.27275  1.0000
  H   H3576     1.0  0.94012  0.82903  0.03094  1.0000
  H   H3577     1.0  0.97496  0.74731  0.11269  1.0000
  H   H3578     1.0  0.76827  0.53166  0.10447  1.0000
  H   H3579     1.0  0.78124  0.62991  0.10053  1.0000
  C   C2010     1.0  0.81299  0.95965  0.27374  1.0000
  C   C2011     1.0  0.97866  0.59812  0.19046  1.0000
  H   H3580     1.0  0.99375  0.69005  0.17220  1.0000
  H   H3581     1.0  0.78782  0.60357  0.24112  1.0000
  S   S449      1.0  0.78397  0.52811  0.28259  1.0000
  C   C2012     1.0  0.79162  0.55356  0.02984  1.0000
  H   H3582     1.0  0.77254  0.58804  0.03617  1.0000
  H   H3583     1.0  0.76798  0.89984  0.28749  1.0000
  H   H3584     1.0  0.78589  0.94165  0.27317  1.0000
  H   H3585     1.0  0.80448  0.96091  0.32493  1.0000
  H   H3586     1.0  0.96957  0.59615  0.17653  1.0000
  C   C2013     1.0  0.99251  0.62208  0.18771  1.0000
  C   C2014     1.0  0.96836  0.96866  0.29504  1.0000
  C   C2015     1.0  0.95320  0.83549  0.02270  1.0000
  H   H3587     1.0  0.98248  0.87484  0.13710  1.0000
  H   H3588     1.0  0.94974  0.85280  0.01169  1.0000
  C   C2016     1.0  0.79504  0.94989  0.28560  1.0000
  H   H3589     1.0  0.00131  0.68161  0.21273  1.0000
  H   H3590     1.0  0.95995  0.62630  0.12306  1.0000
  H   H3591     1.0  0.76399  0.62733  0.25483  1.0000
  H   H3592     1.0  0.95356  0.69201  0.23004  1.0000
  H   H3593     1.0  0.78186  0.53914  0.02265  1.0000
  H   H3594     1.0  0.76843  0.64012  0.22026  1.0000
  H   H3595     1.0  0.99774  0.56559  0.17906  1.0000
  C   C2017     1.0  0.81481  0.85152  0.29700  1.0000
  H   H3596     1.0  0.00665  0.81137  0.17654  1.0000
  H   H3597     1.0  0.90542  0.77635  0.32246  1.0000
  H   H3598     1.0  0.79280  0.58645  0.05196  1.0000
  H   H3599     1.0  0.98186  0.92342  0.31828  1.0000
  H   H3600     1.0  0.95894  0.81802  0.01311  1.0000
  H   H3601     1.0  0.99585  0.76620  0.11726  1.0000
  H   H3602     1.0  0.82187  0.90452  0.29212  1.0000
  H   H3603     1.0  0.00584  0.82363  0.03087  1.0000
  H   H3604     1.0  0.94074  0.95392  0.30443  1.0000
  H   H3605     1.0  0.97292  0.65696  0.11646  1.0000
  C   C2018     1.0  0.90254  0.75459  0.31868  1.0000
  H   H3606     1.0  0.93858  0.86751  0.29296  1.0000
  H   H3607     1.0  0.79363  0.53805  0.07635  1.0000
  H   H3608     1.0  0.99834  0.91219  0.29897  1.0000
  H   H3609     1.0  0.96944  0.88626  0.29905  1.0000
  H   H3610     1.0  0.00039  0.97199  0.27532  1.0000
  C   C2019     1.0  0.99316  0.85642  0.25089  1.0000
  H   H3611     1.0  0.97951  0.80368  0.04353  1.0000
  C   C2020     1.0  0.80140  0.56937  0.01184  1.0000
  C   C2021     1.0  0.80641  0.90266  0.29371  1.0000
  C   C2022     1.0  0.00921  0.74660  0.03727  1.0000
  C   C2023     1.0  0.99931  0.67018  0.17875  1.0000
  H   H3612     1.0  0.95563  0.93274  0.26893  1.0000
  C   C2024     1.0  0.96710  0.92240  0.27794  1.0000
  C   C2025     1.0  0.94394  0.88368  0.28199  1.0000
  H   H3613     1.0  0.99970  0.86267  0.10435  1.0000
  H   H3614     1.0  0.95569  0.69215  0.18106  1.0000
  H   H3615     1.0  0.00478  0.87883  0.22396  1.0000
  H   H3616     1.0  0.96956  0.60153  0.20475  1.0000
  C   C2026     1.0  0.95837  0.90074  0.29329  1.0000
  H   H3617     1.0  0.93196  0.89696  0.27692  1.0000
  H   H3618     1.0  0.97035  0.66884  0.15453  1.0000
  H   H3619     1.0  0.82118  0.97308  0.28409  1.0000
  H   H3620     1.0  0.00443  0.80498  0.09301  1.0000
  H   H3621     1.0  0.96009  0.63777  0.16293  1.0000
  C   C2027     1.0  0.99089  0.93091  0.30504  1.0000
  H   H3622     1.0  0.82440  0.94627  0.31145  1.0000
  H   H3623     1.0  0.99887  0.96692  0.32369  1.0000
  H   H3624     1.0  0.00422  0.93721  0.26724  1.0000
  C   C2028     1.0  0.77884  0.49195  0.09526  1.0000
  H   H3625     1.0  0.97899  0.55382  0.19597  1.0000
  H   H3626     1.0  0.80449  0.87631  0.32289  1.0000
  H   H3627     1.0  0.93544  0.68085  0.21255  1.0000
  C   C2029     1.0  0.79942  0.56723  0.22642  1.0000
  C   C2030     1.0  0.00849  0.86209  0.28436  1.0000
  C   C2031     1.0  0.97383  0.64778  0.16065  1.0000
  C   C2032     1.0  0.77022  0.58103  0.08222  1.0000
  S   S450      1.0  0.00837  0.69462  0.12272  1.0000
  C   C2033     1.0  0.98912  0.57058  0.19345  1.0000
  C   C2034     1.0  0.95088  0.49148  0.29977  1.0000
  C   C2035     1.0  0.94750  0.69468  0.21402  1.0000
  H   H3628     1.0  0.78763  0.86921  0.30342  1.0000
  H   H3629     1.0  0.95140  0.91000  0.30741  1.0000
  H   H3630     1.0  0.81123  0.83203  0.30537  1.0000
  H   H3631     1.0  0.99323  0.97705  0.21734  1.0000
  C   C2036     1.0  0.80235  0.87510  0.30559  1.0000
  H   H3632     1.0  0.77885  0.50541  0.24130  1.0000
  C   C2037     1.0  0.96747  0.84474  0.03878  1.0000
  Fe  Fe225     1.0  0.96946  0.82134  0.31971  1.0000
  N   N112      1.0  0.97953  0.94374  0.28740  1.0000
  H   H3633     1.0  0.80154  0.89979  0.27717  1.0000
  H   H3634     1.0  0.97150  0.89083  0.11451  1.0000
  H   H3635     1.0  0.97526  0.90963  0.26616  1.0000
  H   H3636     1.0  0.96132  0.86075  0.12707  1.0000
  H   H3637     1.0  0.81266  0.84876  0.27971  1.0000
  N   N113      1.0  0.98648  0.82754  0.07123  1.0000
  C   C2038     1.0  0.97340  0.82052  0.05364  1.0000
  C   C2039     1.0  0.99303  0.80106  0.08171  1.0000
  C   C2040     1.0  0.97613  0.84612  0.08688  1.0000
  C   C2041     1.0  0.99307  0.95327  0.27018  1.0000
  Fe  Fe226     1.0  0.79022  0.54193  0.31649  1.0000
  C   C2042     1.0  0.00334  0.84251  0.06275  1.0000
  C   C2043     1.0  0.98644  0.85203  0.10779  1.0000
  C   C2044     1.0  0.97766  0.78435  0.09339  1.0000
  C   C2045     1.0  0.98617  0.75943  0.10489  1.0000
  H   H3638     1.0  0.97353  0.70364  0.19848  1.0000
  H   H3639     1.0  0.98204  0.62350  0.10885  1.0000
  H   H3640     1.0  0.80116  0.55595  0.24173  1.0000
  H   H3641     1.0  0.96027  0.81198  0.06045  1.0000
  H   H3642     1.0  0.97309  0.86659  0.07949  1.0000
  H   H3643     1.0  0.91768  0.89997  0.33087  1.0000
  H   H3644     1.0  0.77419  0.94349  0.32213  1.0000
  H   H3645     1.0  0.96217  0.83781  0.09113  1.0000
  H   H3646     1.0  0.99945  0.78683  0.06969  1.0000
  H   H3647     1.0  0.98225  0.84737  0.24175  1.0000
  C   C2046     1.0  0.78147  0.57360  0.04566  1.0000
  H   H3648     1.0  0.95039  0.87328  0.26787  1.0000
  H   H3649     1.0  0.85628  0.62442  0.33392  1.0000
  H   H3650     1.0  0.96093  0.86198  0.04794  1.0000
  H   H3651     1.0  0.96800  0.71373  0.03433  1.0000
  C   C2047     1.0  0.97461  0.87075  0.12244  1.0000
  H   H3652     1.0  0.99867  0.64021  0.13981  1.0000
  H   H3653     1.0  0.96992  0.79687  0.10549  1.0000
  N   N114      1.0  0.79790  0.92876  0.30315  1.0000
  H   H3654     1.0  0.99394  0.74590  0.09347  1.0000
  N   N115      1.0  0.98393  0.64958  0.18145  1.0000
  H   H3655     1.0  0.00382  0.61582  0.17619  1.0000
  S   S451      1.0  0.81058  0.57636  0.31934  1.0000
  H   H3656     1.0  0.79952  0.96506  0.24301  1.0000
  H   H3657     1.0  0.77237  0.58535  0.27562  1.0000
  H   H3658     1.0  0.81282  0.57719  0.22221  1.0000
  C   C2048     1.0  0.97413  0.63499  0.12148  1.0000
  C   C2049     1.0  0.99530  0.72775  0.04244  1.0000
  H   H3659     1.0  0.79625  0.55226  0.21378  1.0000
  H   H3660     1.0  0.78052  0.51929  0.05816  1.0000
  H   H3661     1.0  0.98871  0.76354  0.21601  1.0000
  H   H3662     1.0  0.78759  0.96867  0.29197  1.0000
  S   S452      1.0  0.99834  0.70219  0.06264  1.0000
  H   H3663     1.0  0.96754  0.77654  0.08187  1.0000
  H   H3664     1.0  0.97964  0.49417  0.26640  1.0000
  H   H3665     1.0  0.00749  0.54251  0.12866  1.0000
  N   N116      1.0  0.77012  0.56115  0.06381  1.0000
  H   H3666     1.0  0.97607  0.65572  0.21463  1.0000
  H   H3667     1.0  0.95407  0.50991  0.28984  1.0000
  C   C2050     1.0  0.81076  0.94115  0.31903  1.0000
  C   C2051     1.0  0.99029  0.76586  0.00833  1.0000
  H   H3668     1.0  0.95772  0.64487  0.19865  1.0000
  H   H3669     1.0  0.97965  0.85271  0.02966  1.0000
  H   H3670     1.0  0.99925  0.86358  0.05712  1.0000
  H   H3671     1.0  0.99962  0.62361  0.20319  1.0000
  C   C2052     1.0  0.94096  0.50145  0.32014  1.0000
  H   H3672     1.0  0.98294  0.49551  0.22580  1.0000
  C   C2053     1.0  0.77907  0.53436  0.07128  1.0000
  S   S453      1.0  0.94751  0.78936  0.32490  1.0000
  C   C2054     1.0  0.80822  0.97683  0.25404  1.0000
  C   C2055     1.0  0.00677  0.76527  0.02018  1.0000
  H   H3673     1.0  0.76756  0.66969  0.01943  1.0000
  C   C2056     1.0  0.99596  0.78104  0.22324  1.0000
  H   H3674     1.0  0.97897  0.49163  0.31014  1.0000
  C   C2057     1.0  0.95285  0.96350  0.31201  1.0000
  H   H3675     1.0  0.93640  0.48355  0.32990  1.0000
  C   C2058     1.0  0.97625  0.74736  0.01373  1.0000
  H   H3676     1.0  0.82537  0.90582  0.33356  1.0000
  C   C2059     1.0  0.76624  0.62976  0.09634  1.0000
  H   H3677     1.0  0.96340  0.74779  0.00497  1.0000
  C   C2060     1.0  0.78381  0.58918  0.22850  1.0000
  C   C2061     1.0  0.00590  0.87425  0.24075  1.0000
  H   H3678     1.0  0.98999  0.80057  0.21663  1.0000
  H   H3679     1.0  0.98588  0.60989  0.14615  1.0000
  H   H3680     1.0  0.89358  0.75439  0.30448  1.0000
  H   H3681     1.0  0.88929  0.71958  0.33246  1.0000
  H   H3682     1.0  0.77069  0.62012  0.06352  1.0000
  H   H3683     1.0  0.97950  0.94172  0.24035  1.0000
  C   C2062     1.0  0.97003  0.65849  0.19856  1.0000
  C   C2063     1.0  0.96227  0.68854  0.19668  1.0000
  H   H3684     1.0  0.78312  0.60037  0.21307  1.0000
  H   H3685     1.0  0.91594  0.74353  0.31479  1.0000
  C   C2064     1.0  0.98447  0.63221  0.14244  1.0000
  H   H3686     1.0  0.95036  0.51425  0.32963  1.0000
  C   C2065     1.0  0.00571  0.94936  0.31513  1.0000
  H   H3687     1.0  0.99330  0.78059  0.24073  1.0000
  C   C2066     1.0  0.76881  0.51916  0.08977  1.0000
  H   H3688     1.0  0.77353  0.63148  0.29232  1.0000
  C   C2067     1.0  0.77913  0.92432  0.31383  1.0000
  H   H3689     1.0  0.99835  0.57121  0.20742  1.0000
  C   C2068     1.0  0.98464  0.96047  0.24815  1.0000
  C   C2069     1.0  0.76587  0.50294  0.25015  1.0000
  H   H3690     1.0  0.01144  0.95819  0.23093  1.0000
  C   C2070     1.0  0.99937  0.97280  0.23315  1.0000
  H   H3691     1.0  0.81249  0.58244  0.01820  1.0000
  H   H3692     1.0  0.78013  0.90849  0.32656  1.0000
  H   H3693     1.0  0.00964  0.85744  0.30114  1.0000
  H   H3694     1.0  0.01205  0.86069  0.16847  1.0000
  H   H3695     1.0  0.79335  0.49564  0.10030  1.0000
  H   H3696     1.0  0.96117  0.97898  0.28157  1.0000
  H   H3697     1.0  0.97285  0.97560  0.24955  1.0000
  C   C2071     1.0  0.76324  0.61098  0.07740  1.0000
  H   H3698     1.0  0.76701  0.60519  0.31109  1.0000
  H   H3699     1.0  0.76694  0.56043  0.24654  1.0000
  C   C2072     1.0  0.76443  0.51210  0.27133  1.0000
  C   C2073     1.0  0.76485  0.57578  0.23359  1.0000
  C   C2074     1.0  0.01056  0.67623  0.19897  1.0000
  H   H3700     1.0  0.00972  0.66300  0.16661  1.0000
  C   C2075     1.0  0.76238  0.61685  0.29680  1.0000
  H   H3701     1.0  0.79126  0.58270  0.00318  1.0000
  C   C2076     1.0  0.85002  0.63720  0.34695  1.0000
  H   H3702     1.0  0.86984  0.59944  0.40252  1.0000
  Fe  Fe227     1.0  0.96359  0.53853  0.45908  1.0000
  S   S454      1.0  0.98423  0.55244  0.43398  1.0000
  S   S455      1.0  0.96895  0.52121  0.49245  1.0000
  Fe  Fe228     1.0  0.93000  0.55160  0.43011  1.0000
  S   S456      1.0  0.94825  0.56605  0.40301  1.0000
  S   S457      1.0  0.89839  0.54907  0.42962  1.0000
  Fe  Fe229     1.0  0.96639  0.52897  0.41146  1.0000
  H   H3703     1.0  0.95511  0.96877  0.50619  1.0000
  Fe  Fe230     1.0  0.96409  0.58839  0.42785  1.0000
  S   S458      1.0  0.97207  0.63398  0.42758  1.0000
  S   S459      1.0  0.94697  0.51320  0.43685  1.0000
  S   S460      1.0  0.94465  0.57591  0.45474  1.0000
  H   H3704     1.0  0.76916  0.67145  0.41932  1.0000
  Fe  Fe231     1.0  0.93268  0.81951  0.34644  1.0000
  S   S461      1.0  0.94713  0.80368  0.37537  1.0000
  H   H3705     1.0  0.88884  0.67479  0.35211  1.0000
  Fe  Fe232     1.0  0.96839  0.83559  0.36678  1.0000
  S   S462      1.0  0.97503  0.86433  0.39386  1.0000
  Fe  Fe233     1.0  0.96340  0.77505  0.35365  1.0000
  S   S463      1.0  0.96351  0.72764  0.35557  1.0000
  C   C2077     1.0  0.81715  0.56499  0.43022  1.0000
  H   H3706     1.0  0.98033  0.60152  0.65285  1.0000
  C   C2078     1.0  0.79531  0.68980  0.36692  1.0000
  Fe  Fe234     1.0  0.82042  0.80925  0.42676  1.0000
  S   S464      1.0  0.80374  0.79618  0.39890  1.0000
  S   S465      1.0  0.85196  0.80708  0.42827  1.0000
  Fe  Fe235     1.0  0.78554  0.82369  0.45476  1.0000
  Fe  Fe236     1.0  0.78598  0.77425  0.42324  1.0000
  Fe  Fe237     1.0  0.78571  0.83373  0.40666  1.0000
  H   H3707     1.0  0.97607  0.61820  0.47956  1.0000
  S   S466      1.0  0.80379  0.78538  0.45094  1.0000
  S   S467      1.0  0.80390  0.84829  0.43265  1.0000
  Fe  Fe238     1.0  0.79066  0.53142  0.36406  1.0000
  H   H3708     1.0  0.00414  0.48654  0.43009  1.0000
  C   C2079     1.0  0.91261  0.64794  0.35561  1.0000
  Fe  Fe239     1.0  0.79369  0.59095  0.34792  1.0000
  C   C2080     1.0  0.77211  0.94577  0.37163  1.0000
  H   H3709     1.0  0.99625  0.55852  0.51032  1.0000
  H   H3710     1.0  0.99719  0.56266  0.65955  1.0000
  S   S468      1.0  0.81062  0.56530  0.37057  1.0000
  C   C2081     1.0  0.78031  0.65599  0.38939  1.0000
  H   H3711     1.0  0.90634  0.63645  0.36917  1.0000
  H   H3712     1.0  0.91772  0.95858  0.41056  1.0000
  C   C2082     1.0  0.90405  0.67705  0.35406  1.0000
  C   C2083     1.0  0.86587  0.61684  0.41321  1.0000
  H   H3713     1.0  0.88166  0.64845  0.39560  1.0000
  H   H3714     1.0  0.77364  0.85786  0.59388  1.0000
  C   C2084     1.0  0.88136  0.63860  0.41152  1.0000
  H   H3715     1.0  0.92796  0.64864  0.35762  1.0000
  H   H3716     1.0  0.98368  0.51105  0.64069  1.0000
  H   H3717     1.0  0.76725  0.78716  0.58844  1.0000
  H   H3718     1.0  0.91018  0.68678  0.33957  1.0000
  H   H3719     1.0  0.90401  0.76314  0.36305  1.0000
  C   C2085     1.0  0.88765  0.82191  0.36830  1.0000
  C   C2086     1.0  0.89584  0.81401  0.38743  1.0000
  C   C2087     1.0  0.88471  0.80980  0.40571  1.0000
  C   C2088     1.0  0.86525  0.81314  0.40498  1.0000
  C   C2089     1.0  0.85694  0.82100  0.38586  1.0000
  C   C2090     1.0  0.86815  0.82547  0.36757  1.0000
  H   H3720     1.0  0.91074  0.81123  0.38826  1.0000
  H   H3721     1.0  0.89117  0.80368  0.42047  1.0000
  H   H3722     1.0  0.84191  0.82369  0.38520  1.0000
  H   H3723     1.0  0.86168  0.83164  0.35283  1.0000
  C   C2091     1.0  0.86882  0.54683  0.36579  1.0000
  C   C2092     1.0  0.88746  0.55491  0.36662  1.0000
  C   C2093     1.0  0.89662  0.55567  0.38613  1.0000
  C   C2094     1.0  0.88732  0.54790  0.40490  1.0000
  C   C2095     1.0  0.86866  0.53978  0.40408  1.0000
  C   C2096     1.0  0.85942  0.53922  0.38457  1.0000
  S   S469      1.0  0.77186  0.55826  0.34351  1.0000
  H   H3724     1.0  0.91087  0.56239  0.38662  1.0000
  H   H3725     1.0  0.86134  0.53388  0.41857  1.0000
  H   H3726     1.0  0.84510  0.53267  0.38405  1.0000
  C   C2097     1.0  0.96914  0.65983  0.40746  1.0000
  C   C2098     1.0  0.97270  0.68753  0.41230  1.0000
  C   C2099     1.0  0.97104  0.70860  0.39675  1.0000
  C   C2100     1.0  0.96593  0.70220  0.37604  1.0000
  C   C2101     1.0  0.96245  0.67452  0.37120  1.0000
  C   C2102     1.0  0.96385  0.65351  0.38680  1.0000
  H   H3727     1.0  0.97688  0.69269  0.42818  1.0000
  H   H3728     1.0  0.97389  0.72971  0.40074  1.0000
  H   H3729     1.0  0.95878  0.66926  0.35516  1.0000
  H   H3730     1.0  0.96122  0.63235  0.38273  1.0000
  C   C2103     1.0  0.97204  0.95846  0.38541  1.0000
  C   C2104     1.0  0.96853  0.94645  0.40534  1.0000
  C   C2105     1.0  0.96902  0.91753  0.40765  1.0000
  C   C2106     1.0  0.97267  0.90042  0.39004  1.0000
  C   C2107     1.0  0.97529  0.91243  0.36998  1.0000
  C   C2108     1.0  0.97523  0.94133  0.36779  1.0000
  H   H3731     1.0  0.96602  0.95943  0.41905  1.0000
  H   H3732     1.0  0.96666  0.90839  0.42311  1.0000
  H   H3733     1.0  0.97820  0.89947  0.35634  1.0000
  H   H3734     1.0  0.97816  0.95059  0.35251  1.0000
  C   C2109     1.0  0.83343  0.60295  0.40964  1.0000
  H   H3735     1.0  0.00855  0.92390  0.34380  1.0000
  S   S470      1.0  0.95296  0.85292  0.33888  1.0000
  H   H3736     1.0  0.77675  0.87785  0.52449  1.0000
  H   H3737     1.0  0.81962  0.94707  0.61397  1.0000
  H   H3738     1.0  0.94980  0.51841  0.55738  1.0000
  H   H3739     1.0  0.84354  0.64054  0.44152  1.0000
  H   H3740     1.0  0.85651  0.65775  0.34652  1.0000
  C   C2110     1.0  0.98852  0.50210  0.50218  1.0000
  H   H3741     1.0  0.98380  0.61151  0.55332  1.0000
  H   H3742     1.0  0.97453  0.88132  0.48173  1.0000
  H   H3743     1.0  0.90961  0.93158  0.34332  1.0000
  H   H3744     1.0  0.00252  0.52832  0.54645  1.0000
  C   C2111     1.0  0.84503  0.64023  0.38698  1.0000
  H   H3745     1.0  0.83014  0.92688  0.36850  1.0000
  H   H3746     1.0  0.96787  0.58923  0.51014  1.0000
  H   H3747     1.0  0.94075  0.49358  0.36830  1.0000
  S   S471      1.0  0.79280  0.63823  0.34924  1.0000
  H   H3748     1.0  0.93330  0.51105  0.39242  1.0000
  N   N117      1.0  0.90824  0.89920  0.40597  1.0000
  C   C2112     1.0  0.91343  0.91355  0.38535  1.0000
  C   C2113     1.0  0.91042  0.91852  0.42455  1.0000
  C   C2114     1.0  0.92178  0.87511  0.40880  1.0000
  C   C2115     1.0  0.88878  0.88793  0.40564  1.0000
  C   C2116     1.0  0.87255  0.90916  0.40293  1.0000
  C   C2117     1.0  0.91234  0.89620  0.36481  1.0000
  C   C2118     1.0  0.92049  0.85940  0.43041  1.0000
  C   C2119     1.0  0.90638  0.94976  0.42068  1.0000
  H   H3749     1.0  0.96105  0.56228  0.65588  1.0000
  C   C2120     1.0  0.85392  0.89464  0.40092  1.0000
  H   H3750     1.0  0.80361  0.94426  0.41130  1.0000
  C   C2121     1.0  0.93634  0.83795  0.43225  1.0000
  H   H3751     1.0  0.92797  0.92128  0.38627  1.0000
  H   H3752     1.0  0.90439  0.93207  0.38264  1.0000
  H   H3753     1.0  0.90157  0.91174  0.43833  1.0000
  H   H3754     1.0  0.92512  0.91761  0.43019  1.0000
  H   H3755     1.0  0.93640  0.88214  0.40662  1.0000
  H   H3756     1.0  0.91986  0.85927  0.39643  1.0000
  H   H3757     1.0  0.88778  0.87206  0.39309  1.0000
  H   H3758     1.0  0.88553  0.87685  0.42074  1.0000
  H   H3759     1.0  0.87460  0.92219  0.38856  1.0000
  H   H3760     1.0  0.87128  0.92242  0.41721  1.0000
  H   H3761     1.0  0.92156  0.87760  0.36547  1.0000
  H   H3762     1.0  0.89779  0.88976  0.36217  1.0000
  H   H3763     1.0  0.90717  0.84826  0.43190  1.0000
  H   H3764     1.0  0.92143  0.87341  0.44416  1.0000
  C   C2122     1.0  0.78405  0.95560  0.38703  1.0000
  H   H3765     1.0  0.79341  0.96409  0.59274  1.0000
  H   H3766     1.0  0.80327  0.57235  0.42456  1.0000
  C   C2123     1.0  0.86583  0.74402  0.38358  1.0000
  H   H3767     1.0  0.00319  0.91006  0.52362  1.0000
  H   H3768     1.0  0.85166  0.87993  0.41432  1.0000
  H   H3769     1.0  0.84223  0.91011  0.40128  1.0000
  H   H3770     1.0  0.85359  0.88321  0.38570  1.0000
  H   H3771     1.0  0.83890  0.58644  0.39893  1.0000
  H   H3772     1.0  0.99477  0.94978  0.63884  1.0000
  C   C2124     1.0  0.90574  0.96557  0.44161  1.0000
  H   H3773     1.0  0.93495  0.82651  0.44753  1.0000
  H   H3774     1.0  0.93592  0.82298  0.41904  1.0000
  H   H3775     1.0  0.95005  0.84816  0.43173  1.0000
  H   H3776     1.0  0.98146  0.61810  0.51835  1.0000
  H   H3777     1.0  0.87044  0.76249  0.37460  1.0000
  H   H3778     1.0  0.77235  0.90080  0.43596  1.0000
  C   C2125     1.0  0.78092  0.93294  0.45679  1.0000
  C   C2126     1.0  0.98726  0.83956  0.45431  1.0000
  C   C2127     1.0  0.79199  0.71030  0.38248  1.0000
  H   H3779     1.0  0.01053  0.58644  0.51617  1.0000
  H   H3780     1.0  0.99340  0.59091  0.57380  1.0000
  H   H3781     1.0  0.81212  0.96817  0.63614  1.0000
  C   C2128     1.0  0.96998  0.54770  0.56862  1.0000
  C   C2129     1.0  0.92879  0.50402  0.37666  1.0000
  H   H3782     1.0  0.77676  0.94298  0.47199  1.0000
  H   H3783     1.0  0.83991  0.94771  0.34736  1.0000
  Fe  Fe240     1.0  0.82619  0.54914  0.34206  1.0000
  C   C2130     1.0  0.00590  0.50171  0.49158  1.0000
  H   H3784     1.0  0.76965  0.94787  0.55820  1.0000
  C   C2131     1.0  0.91251  0.48452  0.37928  1.0000
  C   C2132     1.0  0.82670  0.94007  0.35459  1.0000
  H   H3785     1.0  0.81880  0.66996  0.45835  1.0000
  H   H3786     1.0  0.81015  0.93485  0.46514  1.0000
  H   H3787     1.0  0.95418  0.63403  0.66403  1.0000
  C   C2133     1.0  0.90439  0.74122  0.35783  1.0000
  H   H3788     1.0  0.99675  0.87845  0.51136  1.0000
  S   S472      1.0  0.78034  0.84483  0.48705  1.0000
  H   H3789     1.0  0.78249  0.94918  0.44444  1.0000
  C   C2134     1.0  0.94910  0.95368  0.49519  1.0000
  C   C2135     1.0  0.00799  0.54911  0.54967  1.0000
  H   H3790     1.0  0.98801  0.93760  0.44876  1.0000
  H   H3791     1.0  0.93969  0.55136  0.56548  1.0000
  H   H3792     1.0  0.96375  0.57638  0.54344  1.0000
  H   H3793     1.0  0.97009  0.56383  0.58101  1.0000
  H   H3794     1.0  0.97344  0.48854  0.53022  1.0000
  H   H3795     1.0  0.90111  0.61555  0.43135  1.0000
  H   H3796     1.0  0.79645  0.73118  0.37960  1.0000
  H   H3797     1.0  0.83700  0.75869  0.38476  1.0000
  H   H3798     1.0  0.92399  0.69693  0.37279  1.0000
  H   H3799     1.0  0.87231  0.71019  0.36230  1.0000
  H   H3800     1.0  0.94328  0.93627  0.50455  1.0000
  H   H3801     1.0  0.93755  0.96425  0.48657  1.0000
  H   H3802     1.0  0.86715  0.74831  0.40082  1.0000
  H   H3803     1.0  0.82289  0.54903  0.41913  1.0000
  H   H3804     1.0  0.89478  0.56086  0.35214  1.0000
  H   H3805     1.0  0.84667  0.60241  0.36753  1.0000
  H   H3806     1.0  0.90406  0.60949  0.40320  1.0000
  C   C2136     1.0  0.97501  0.53007  0.63810  1.0000
  H   H3807     1.0  0.90989  0.63647  0.34081  1.0000
  C   C2137     1.0  0.01069  0.91736  0.65512  1.0000
  C   C2138     1.0  0.85330  0.62278  0.36826  1.0000
  H   H3808     1.0  0.83013  0.64483  0.38311  1.0000
  H   H3809     1.0  0.00218  0.65296  0.56200  1.0000
  H   H3810     1.0  0.81803  0.95793  0.36033  1.0000
  C   C2139     1.0  0.96909  0.63895  0.66620  1.0000
  C   C2140     1.0  0.83053  0.58899  0.43170  1.0000
  H   H3811     1.0  0.84392  0.58049  0.43779  1.0000
  N   N118      1.0  0.99480  0.91364  0.47698  1.0000
  H   H3812     1.0  0.00748  0.90174  0.43310  1.0000
  H   H3813     1.0  0.80018  0.89407  0.40660  1.0000
  H   H3814     1.0  0.86859  0.61934  0.36977  1.0000
  H   H3815     1.0  0.97723  0.89240  0.45516  1.0000
  H   H3816     1.0  0.98003  0.53099  0.57307  1.0000
  C   C2141     1.0  0.97460  0.56003  0.54627  1.0000
  C   C2142     1.0  0.99791  0.86194  0.46554  1.0000
  N   N119      1.0  0.89865  0.72216  0.37586  1.0000
  C   C2143     1.0  0.87779  0.71807  0.37736  1.0000
  C   C2144     1.0  0.90858  0.69442  0.37377  1.0000
  C   C2145     1.0  0.90440  0.73454  0.39666  1.0000
  C   C2146     1.0  0.81602  0.92328  0.33857  1.0000
  C   C2147     1.0  0.76945  0.91722  0.36980  1.0000
  H   H3817     1.0  0.00899  0.89498  0.65795  1.0000
  C   C2148     1.0  0.92570  0.73679  0.39998  1.0000
  H   H3818     1.0  0.00634  0.95102  0.46393  1.0000
  H   H3819     1.0  0.76616  0.89508  0.46283  1.0000
  H   H3820     1.0  0.81941  0.60886  0.40340  1.0000
  H   H3821     1.0  0.83979  0.72203  0.38866  1.0000
  C   C2149     1.0  0.92975  0.75471  0.41914  1.0000
  H   H3822     1.0  0.87457  0.70184  0.38943  1.0000
  C   C2150     1.0  0.81594  0.67960  0.44264  1.0000
  H   H3823     1.0  0.00918  0.63374  0.58545  1.0000
  H   H3824     1.0  0.90591  0.68176  0.38831  1.0000
  H   H3825     1.0  0.89865  0.72251  0.41038  1.0000
  H   H3826     1.0  0.94511  0.75587  0.42107  1.0000
  H   H3827     1.0  0.00063  0.61421  0.48488  1.0000
  H   H3828     1.0  0.98337  0.84667  0.43814  1.0000
  H   H3829     1.0  0.97567  0.91761  0.50406  1.0000
  H   H3830     1.0  0.83480  0.63974  0.34410  1.0000
  H   H3831     1.0  0.81519  0.55532  0.44614  1.0000
  H   H3832     1.0  0.89408  0.95844  0.45203  1.0000
  H   H3833     1.0  0.93271  0.74589  0.38580  1.0000
  H   H3834     1.0  0.93199  0.71606  0.40313  1.0000
  C   C2151     1.0  0.95052  0.53533  0.56914  1.0000
  C   C2152     1.0  0.78235  0.70396  0.40140  1.0000
  H   H3835     1.0  0.00031  0.97978  0.55168  1.0000
  H   H3836     1.0  0.99629  0.82073  0.45260  1.0000
  H   H3837     1.0  0.94746  0.52671  0.58521  1.0000
  H   H3838     1.0  0.95753  0.92815  0.46868  1.0000
  S   S473      1.0  0.90144  0.82789  0.34524  1.0000
  N   N120      1.0  0.99400  0.57128  0.54304  1.0000
  H   H3839     1.0  0.91154  0.64130  0.41443  1.0000
  S   S474      1.0  0.97751  0.49980  0.38586  1.0000
  H   H3840     1.0  0.93342  0.91899  0.34693  1.0000
  H   H3841     1.0  0.80096  0.68611  0.44251  1.0000
  H   H3842     1.0  0.84933  0.66706  0.42327  1.0000
  H   H3843     1.0  0.81738  0.67011  0.40944  1.0000
  C   C2153     1.0  0.99329  0.92787  0.64362  1.0000
  C   C2154     1.0  0.81231  0.96668  0.61852  1.0000
  H   H3844     1.0  0.97393  0.65112  0.65221  1.0000
  C   C2155     1.0  0.78940  0.66257  0.37017  1.0000
  C   C2156     1.0  0.77926  0.89838  0.38273  1.0000
  H   H3845     1.0  0.89297  0.95380  0.41264  1.0000
  H   H3846     1.0  0.98060  0.92567  0.65389  1.0000
  S   S475      1.0  0.78441  0.50378  0.39227  1.0000
  H   H3847     1.0  0.92352  0.74573  0.43388  1.0000
  H   H3848     1.0  0.79933  0.90277  0.47230  1.0000
  H   H3849     1.0  0.80359  0.91517  0.34697  1.0000
  H   H3850     1.0  0.84269  0.73702  0.36232  1.0000
  H   H3851     1.0  0.85182  0.66062  0.38659  1.0000
  H   H3852     1.0  0.00750  0.51256  0.47659  1.0000
  H   H3853     1.0  0.80227  0.69522  0.35209  1.0000
  H   H3854     1.0  0.86667  0.60803  0.42954  1.0000
  H   H3855     1.0  0.98292  0.54431  0.62752  1.0000
  C   C2157     1.0  0.98201  0.59818  0.50980  1.0000
  H   H3856     1.0  0.76814  0.95605  0.64662  1.0000
  S   S476      1.0  0.77474  0.86286  0.38105  1.0000
  H   H3857     1.0  0.81007  0.64222  0.42644  1.0000
  C   C2158     1.0  0.98118  0.93039  0.49068  1.0000
  C   C2159     1.0  0.80014  0.91925  0.45996  1.0000
  S   S477      1.0  0.77695  0.72923  0.42123  1.0000
  H   H3858     1.0  0.82447  0.69831  0.44054  1.0000
  C   C2160     1.0  0.79210  0.90828  0.39708  1.0000
  H   H3859     1.0  0.97217  0.54368  0.53436  1.0000
  H   H3860     1.0  0.89837  0.75575  0.39831  1.0000
  H   H3861     1.0  0.00989  0.54954  0.56715  1.0000
  C   C2161     1.0  0.79422  0.93676  0.39951  1.0000
  C   C2162     1.0  0.96400  0.94329  0.47924  1.0000
  C   C2163     1.0  0.84066  0.64845  0.42522  1.0000
  C   C2164     1.0  0.00040  0.93145  0.45820  1.0000
  C   C2165     1.0  0.84509  0.74003  0.37953  1.0000
  C   C2166     1.0  0.00790  0.89388  0.51213  1.0000
  C   C2167     1.0  0.98688  0.60416  0.48646  1.0000
  H   H3862     1.0  0.87902  0.75197  0.34015  1.0000
  C   C2168     1.0  0.91866  0.91285  0.34533  1.0000
  N   N121      1.0  0.84626  0.62717  0.40879  1.0000
  H   H3863     1.0  0.97445  0.83414  0.46353  1.0000
  H   H3864     1.0  0.80554  0.91012  0.44484  1.0000
  H   H3865     1.0  0.87911  0.65487  0.42366  1.0000
  C   C2169     1.0  0.82009  0.65919  0.42466  1.0000
  H   H3866     1.0  0.98844  0.94758  0.49838  1.0000
  H   H3867     1.0  0.82447  0.60369  0.44352  1.0000
  C   C2170     1.0  0.77663  0.67663  0.40476  1.0000
  H   H3868     1.0  0.92400  0.77594  0.41679  1.0000
  H   H3869     1.0  0.00799  0.94848  0.41665  1.0000
  C   C2171     1.0  0.90065  0.62539  0.41535  1.0000
  C   C2172     1.0  0.98525  0.88792  0.46978  1.0000
  H   H3870     1.0  0.96204  0.52432  0.63000  1.0000
  H   H3871     1.0  0.01039  0.86655  0.45560  1.0000
  H   H3872     1.0  0.91916  0.96286  0.45004  1.0000
  H   H3873     1.0  0.90106  0.49540  0.38822  1.0000
  S   S478      1.0  0.98650  0.80554  0.34732  1.0000
  H   H3874     1.0  0.96831  0.96142  0.46956  1.0000
  H   H3875     1.0  0.78532  0.94879  0.61696  1.0000
  H   H3876     1.0  0.91932  0.73709  0.35317  1.0000
  S   S479      1.0  0.76621  0.81094  0.42893  1.0000
  C   C2173     1.0  0.79239  0.96696  0.61020  1.0000
  H   H3877     1.0  0.92456  0.52225  0.36701  1.0000
  C   C2174     1.0  0.99658  0.57790  0.51966  1.0000
  H   H3878     1.0  0.00288  0.85305  0.48077  1.0000
  H   H3879     1.0  0.77554  0.63525  0.39211  1.0000
  H   H3880     1.0  0.99152  0.91559  0.62899  1.0000
  C   C2175     1.0  0.99537  0.59651  0.55674  1.0000
  H   H3881     1.0  0.98730  0.58476  0.47716  1.0000
  C   C2176     1.0  0.76644  0.91141  0.45029  1.0000
  C   C2177     1.0  0.98106  0.61256  0.66817  1.0000
  C   C2178     1.0  0.98681  0.48832  0.52187  1.0000
  C   C2179     1.0  0.89253  0.74069  0.33741  1.0000
  C   C2180     1.0  0.97003  0.54392  0.65932  1.0000
  H   H3882     1.0  0.96176  0.52915  0.66897  1.0000
  S   S480      1.0  0.85774  0.54627  0.34107  1.0000
  H   H3883     1.0  0.77504  0.74219  0.60496  1.0000
  H   H3884     1.0  0.76406  0.96020  0.36210  1.0000
  C   C2181     1.0  0.01185  0.90736  0.49008  1.0000
  S   S481      1.0  0.80757  0.51348  0.33699  1.0000
  H   H3885     1.0  0.76563  0.97422  0.53836  1.0000
  C   C2182     1.0  0.76274  0.87291  0.51990  1.0000
  H   H3886     1.0  0.76235  0.78736  0.54676  1.0000
  Fe  Fe241     1.0  0.92847  0.79326  0.93918  1.0000
  S   S482      1.0  0.93963  0.80648  0.90737  1.0000
  S   S483      1.0  0.89727  0.78674  0.94253  1.0000
  Fe  Fe242     1.0  0.96706  0.79529  0.96012  1.0000
  S   S484      1.0  0.98029  0.80969  0.92919  1.0000
  S   S485      1.0  0.98800  0.79038  0.98728  1.0000
  Fe  Fe243     1.0  0.95529  0.83841  0.92511  1.0000
  S   S486      1.0  0.95111  0.88510  0.91888  1.0000
  Fe  Fe244     1.0  0.96321  0.77652  0.91452  1.0000
  S   S487      1.0  0.97481  0.74609  0.88998  1.0000
  S   S488      1.0  0.94308  0.82614  0.95713  1.0000
  S   S489      1.0  0.95107  0.76121  0.94539  1.0000
  Fe  Fe245     1.0  0.95783  0.58937  0.87061  1.0000
  S   S490      1.0  0.94697  0.60879  0.84078  1.0000
  S   S491      1.0  0.96419  0.61668  0.89848  1.0000
  Fe  Fe246     1.0  0.95070  0.52955  0.85580  1.0000
  S   S492      1.0  0.93940  0.54615  0.82492  1.0000
  H   H3887     1.0  0.99552  0.53187  0.67445  1.0000
  Fe  Fe247     1.0  0.96358  0.57517  0.82377  1.0000
  S   S493      1.0  0.98534  0.57754  0.79631  1.0000
  Fe  Fe248     1.0  0.92409  0.57785  0.84511  1.0000
  S   S494      1.0  0.89287  0.58696  0.84306  1.0000
  S   S495      1.0  0.97580  0.55707  0.85386  1.0000
  S   S496      1.0  0.93423  0.56008  0.87565  1.0000
  H   H3888     1.0  0.98562  0.48965  0.86212  1.0000
  C   C2183     1.0  0.77201  0.71889  0.89417  1.0000
  Fe  Fe249     1.0  0.82122  0.80427  0.85612  1.0000
  S   S497      1.0  0.80289  0.81795  0.88352  1.0000
  S   S498      1.0  0.85286  0.80149  0.85681  1.0000
  Fe  Fe250     1.0  0.78804  0.79431  0.82688  1.0000
  Fe  Fe251     1.0  0.78677  0.84276  0.85944  1.0000
  Fe  Fe252     1.0  0.78510  0.78241  0.87424  1.0000
  H   H3889     1.0  0.85554  0.53295  0.93426  1.0000
  S   S499      1.0  0.80630  0.83102  0.83222  1.0000
  S   S500      1.0  0.80480  0.76681  0.84871  1.0000
  Fe  Fe253     1.0  0.81141  0.58016  0.92670  1.0000
  S   S501      1.0  0.79922  0.56482  0.89674  1.0000
  S   S502      1.0  0.84236  0.58927  0.92785  1.0000
  H   H3890     1.0  0.00010  0.93372  0.68527  1.0000
  Fe  Fe254     1.0  0.78375  0.53453  0.91745  1.0000
  Fe  Fe255     1.0  0.77604  0.59570  0.90459  1.0000
  C   C2184     1.0  0.95687  0.69175  0.97417  1.0000
  S   S503      1.0  0.79724  0.54874  0.94748  1.0000
  S   S504      1.0  0.78913  0.61236  0.93376  1.0000
  H   H3891     1.0  0.95377  0.71246  0.98095  1.0000
  H   H3892     1.0  0.96884  0.51666  0.79059  1.0000
  H   H3893     1.0  0.98116  0.71187  0.94604  1.0000
  C   C2185     1.0  0.78059  0.66617  0.79170  1.0000
  C   C2186     1.0  0.76847  0.66221  0.88519  1.0000
  H   H3894     1.0  0.77760  0.61917  0.77180  1.0000
  H   H3895     1.0  0.98017  0.66452  0.96735  1.0000
  H   H3896     1.0  0.01199  0.53465  0.88135  1.0000
  H   H3897     1.0  0.79541  0.88905  0.93751  1.0000
  H   H3898     1.0  0.89506  0.71401  0.91997  1.0000
  C   C2187     1.0  0.87899  0.58751  0.86678  1.0000
  C   C2188     1.0  0.88702  0.58833  0.88687  1.0000
  C   C2189     1.0  0.87566  0.58890  0.90540  1.0000
  C   C2190     1.0  0.85612  0.58857  0.90411  1.0000
  C   C2191     1.0  0.84805  0.58810  0.88404  1.0000
  C   C2192     1.0  0.85943  0.58767  0.86549  1.0000
  H   H3899     1.0  0.90198  0.58901  0.88823  1.0000
  H   H3900     1.0  0.88207  0.58958  0.92081  1.0000
  H   H3901     1.0  0.83305  0.58844  0.88273  1.0000
  H   H3902     1.0  0.85302  0.58731  0.85006  1.0000
  C   C2193     1.0  0.98966  0.60184  0.77535  1.0000
  H   H3903     1.0  0.79215  0.67285  0.82364  1.0000
  H   H3904     1.0  0.96133  0.48249  0.79745  1.0000
  H   H3905     1.0  0.76624  0.76940  0.71419  1.0000
  H   H3906     1.0  0.80860  0.93594  0.92049  1.0000
  C   C2194     1.0  0.97569  0.61971  0.76757  1.0000
  S   S505      1.0  0.77535  0.88727  0.86415  1.0000
  H   H3907     1.0  0.81317  0.83083  0.93833  1.0000
  H   H3908     1.0  0.96194  0.61998  0.77505  1.0000
  C   C2195     1.0  0.88456  0.78892  0.91878  1.0000
  C   C2196     1.0  0.86562  0.79720  0.91950  1.0000
  C   C2197     1.0  0.85549  0.80022  0.90065  1.0000
  C   C2198     1.0  0.86424  0.79487  0.88097  1.0000
  C   C2199     1.0  0.88300  0.78589  0.88031  1.0000
  C   C2200     1.0  0.89308  0.78268  0.89913  1.0000
  H   H3909     1.0  0.85892  0.80192  0.93466  1.0000
  H   H3910     1.0  0.84112  0.80753  0.90130  1.0000
  H   H3911     1.0  0.88979  0.78168  0.86513  1.0000
  H   H3912     1.0  0.90744  0.77535  0.89842  1.0000
  C   C2201     1.0  0.96992  0.71043  0.89153  1.0000
  C   C2202     1.0  0.97616  0.69285  0.87506  1.0000
  C   C2203     1.0  0.97337  0.66422  0.87635  1.0000
  C   C2204     1.0  0.96494  0.65281  0.89454  1.0000
  C   C2205     1.0  0.95836  0.67042  0.91078  1.0000
  C   C2206     1.0  0.96048  0.69911  0.90908  1.0000
  H   H3913     1.0  0.98342  0.70137  0.86135  1.0000
  H   H3914     1.0  0.97862  0.65085  0.86378  1.0000
  H   H3915     1.0  0.95176  0.66174  0.92484  1.0000
  H   H3916     1.0  0.95518  0.71235  0.92158  1.0000
  C   C2207     1.0  0.95642  0.91275  0.90095  1.0000
  C   C2208     1.0  0.94863  0.93920  0.90506  1.0000
  C   C2209     1.0  0.95219  0.96178  0.89133  1.0000
  C   C2210     1.0  0.96366  0.95827  0.87320  1.0000
  C   C2211     1.0  0.97144  0.93181  0.86909  1.0000
  C   C2212     1.0  0.96781  0.90919  0.88277  1.0000
  H   H3917     1.0  0.93987  0.94231  0.91910  1.0000
  H   H3918     1.0  0.00648  0.89104  0.71933  1.0000
  H   H3919     1.0  0.98039  0.92878  0.85519  1.0000
  H   H3920     1.0  0.97394  0.88909  0.87933  1.0000
  C   C2213     1.0  0.78177  0.91663  0.87925  1.0000
  H   H3921     1.0  0.89121  0.62460  0.79840  1.0000
  C   C2214     1.0  0.99704  0.63635  0.73934  1.0000
  H   H3922     1.0  0.91954  0.49697  0.90239  1.0000
  C   C2215     1.0  0.97146  0.56507  0.72938  1.0000
  H   H3923     1.0  0.78706  0.66528  0.96233  1.0000
  H   H3924     1.0  0.00307  0.59258  0.71077  1.0000
  C   C2216     1.0  0.01115  0.61911  0.74752  1.0000
  H   H3925     1.0  0.77469  0.68036  0.77944  1.0000
  C   C2217     1.0  0.00060  0.48982  0.85706  1.0000
  H   H3926     1.0  0.81508  0.69176  0.79782  1.0000
  H   H3927     1.0  0.80420  0.62980  0.81173  1.0000
  S   S506      1.0  0.78567  0.48692  0.91581  1.0000
  C   C2218     1.0  0.79557  0.91513  0.89468  1.0000
  H   H3928     1.0  0.76672  0.61599  0.73457  1.0000
  H   H3929     1.0  0.87897  0.72484  0.94073  1.0000
  H   H3930     1.0  0.78234  0.86077  0.90901  1.0000
  N   N122      1.0  0.89902  0.87541  0.87506  1.0000
  C   C2219     1.0  0.90312  0.89673  0.85813  1.0000
  C   C2220     1.0  0.87934  0.86567  0.87238  1.0000
  C   C2221     1.0  0.90139  0.88816  0.89659  1.0000
  C   C2222     1.0  0.91222  0.85077  0.87316  1.0000
  C   C2223     1.0  0.91485  0.83844  0.85058  1.0000
  C   C2224     1.0  0.92332  0.90778  0.85760  1.0000
  C   C2225     1.0  0.89603  0.86967  0.91597  1.0000
  C   C2226     1.0  0.86342  0.88740  0.87647  1.0000
  C   C2227     1.0  0.84425  0.87477  0.87383  1.0000
  C   C2228     1.0  0.92810  0.81330  0.85088  1.0000
  C   C2229     1.0  0.92782  0.92214  0.83646  1.0000
  C   C2230     1.0  0.89894  0.88447  0.93695  1.0000
  H   H3931     1.0  0.89384  0.91523  0.86027  1.0000
  H   H3932     1.0  0.89973  0.88877  0.84214  1.0000
  H   H3933     1.0  0.87749  0.85783  0.85600  1.0000
  H   H3934     1.0  0.87662  0.84766  0.88290  1.0000
  H   H3935     1.0  0.89348  0.90808  0.89782  1.0000
  H   H3936     1.0  0.91622  0.89376  0.89864  1.0000
  H   H3937     1.0  0.92628  0.85555  0.87929  1.0000
  H   H3938     1.0  0.90729  0.83373  0.88360  1.0000
  H   H3939     1.0  0.92101  0.85359  0.83934  1.0000
  H   H3940     1.0  0.90131  0.83179  0.84433  1.0000
  H   H3941     1.0  0.92479  0.92297  0.87054  1.0000
  H   H3942     1.0  0.93409  0.89130  0.85979  1.0000
  H   H3943     1.0  0.90483  0.85053  0.91625  1.0000
  H   H3944     1.0  0.88116  0.86381  0.91562  1.0000
  H   H3945     1.0  0.86384  0.89560  0.89284  1.0000
  H   H3946     1.0  0.86442  0.90483  0.86504  1.0000
  H   H3947     1.0  0.84205  0.85801  0.88568  1.0000
  H   H3948     1.0  0.83311  0.89084  0.87619  1.0000
  H   H3949     1.0  0.84296  0.86619  0.85760  1.0000
  H   H3950     1.0  0.94215  0.81910  0.85630  1.0000
  H   H3951     1.0  0.92250  0.79716  0.86167  1.0000
  H   H3952     1.0  0.94160  0.93211  0.83732  1.0000
  H   H3953     1.0  0.92854  0.90690  0.82337  1.0000
  H   H3954     1.0  0.91711  0.93825  0.83275  1.0000
  H   H3955     1.0  0.89522  0.87055  0.95041  1.0000
  H   H3956     1.0  0.91381  0.89003  0.93852  1.0000
  H   H3957     1.0  0.89003  0.90343  0.93804  1.0000
  C   C2231     1.0  0.80046  0.66780  0.97066  1.0000
  H   H3958     1.0  0.99803  0.75091  0.93477  1.0000
  H   H3959     1.0  0.97035  0.65184  0.68062  1.0000
  H   H3960     1.0  0.00523  0.62185  0.91249  1.0000
  H   H3961     1.0  0.94970  0.53695  0.73987  1.0000
  C   C2232     1.0  0.78828  0.96284  0.90576  1.0000
  H   H3962     1.0  0.98943  0.65623  0.93482  1.0000
  H   H3963     1.0  0.01011  0.54605  0.72468  1.0000
  C   C2233     1.0  0.76386  0.62651  0.77848  1.0000
  C   C2234     1.0  0.77167  0.94174  0.87677  1.0000
  H   H3964     1.0  0.92960  0.80462  0.83463  1.0000
  H   H3965     1.0  0.82390  0.86253  0.94560  1.0000
  H   H3966     1.0  0.88682  0.97011  0.89964  1.0000
  H   H3967     1.0  0.76961  0.67510  0.85244  1.0000
  C   C2235     1.0  0.00491  0.65640  0.93427  1.0000
  H   H3968     1.0  0.98460  0.57258  0.73594  1.0000
  H   H3969     1.0  0.81752  0.85716  0.91842  1.0000
  H   H3970     1.0  0.78893  0.57695  0.83235  1.0000
  H   H3971     1.0  0.80594  0.71803  0.81559  1.0000
  C   C2236     1.0  0.97790  0.68544  0.97386  1.0000
  H   H3972     1.0  0.79069  0.86285  0.95722  1.0000
  C   C2237     1.0  0.98455  0.49712  0.81584  1.0000
  H   H3973     1.0  0.85279  0.52534  0.86447  1.0000
  H   H3974     1.0  0.98195  0.53090  0.70971  1.0000
  C   C2238     1.0  0.83810  0.51863  0.86387  1.0000
  H   H3975     1.0  0.98286  0.48722  0.78218  1.0000
  C   C2239     1.0  0.79860  0.59452  0.83132  1.0000
  C   C2240     1.0  0.76752  0.75686  0.78134  1.0000
  C   C2241     1.0  0.77505  0.96479  0.88971  1.0000
  H   H3976     1.0  0.95129  0.69101  0.95787  1.0000
  H   H3977     1.0  0.96831  0.64994  0.74354  1.0000
  H   H3978     1.0  0.77401  0.63415  0.99164  1.0000
  H   H3979     1.0  0.86827  0.50406  0.94445  1.0000
  H   H3980     1.0  0.79731  0.67797  0.98613  1.0000
  H   H3981     1.0  0.90632  0.63957  0.77834  1.0000
  H   H3982     1.0  0.00660  0.65499  0.89957  1.0000
  H   H3983     1.0  0.78089  0.83183  0.92644  1.0000
  C   C2242     1.0  0.00740  0.60173  0.76517  1.0000
  H   H3984     1.0  0.87466  0.96227  0.87609  1.0000
  C   C2243     1.0  0.96314  0.54489  0.74552  1.0000
  H   H3985     1.0  0.95909  0.59009  0.68458  1.0000
  H   H3986     1.0  0.78192  0.75749  0.75092  1.0000
  C   C2244     1.0  0.77021  0.74933  0.75989  1.0000
  C   C2245     1.0  0.84920  0.96540  0.90665  1.0000
  C   C2246     1.0  0.98875  0.70758  0.96099  1.0000
  H   H3987     1.0  0.79774  0.60595  0.84656  1.0000
  C   C2247     1.0  0.78678  0.68499  0.81001  1.0000
  H   H3988     1.0  0.87209  0.93820  0.91771  1.0000
  H   H3989     1.0  0.83002  0.51668  0.98462  1.0000
  C   C2248     1.0  0.97934  0.63664  0.74962  1.0000
  C   C2249     1.0  0.83961  0.50370  0.95325  1.0000
  H   H3990     1.0  0.84172  0.91322  0.92226  1.0000
  H   H3991     1.0  0.98696  0.72698  0.97028  1.0000
  H   H3992     1.0  0.80353  0.89617  0.89679  1.0000
  H   H3993     1.0  0.90455  0.48522  0.88193  1.0000
  H   H3994     1.0  0.99572  0.84419  0.71200  1.0000
  N   N123      1.0  0.83221  0.68635  0.92133  1.0000
  C   C2250     1.0  0.85101  0.68641  0.93179  1.0000
  C   C2251     1.0  0.81849  0.67169  0.93573  1.0000
  C   C2252     1.0  0.83445  0.66951  0.90126  1.0000
  C   C2253     1.0  0.82492  0.71500  0.91572  1.0000
  C   C2254     1.0  0.83066  0.73898  0.93033  1.0000
  C   C2255     1.0  0.86736  0.69707  0.91756  1.0000
  C   C2256     1.0  0.81631  0.66477  0.88883  1.0000
  C   C2257     1.0  0.81369  0.68548  0.95732  1.0000
  H   H3995     1.0  0.80690  0.64715  0.97384  1.0000
  C   C2258     1.0  0.81843  0.76471  0.92670  1.0000
  C   C2259     1.0  0.82057  0.65582  0.86596  1.0000
  H   H3996     1.0  0.85507  0.66510  0.93705  1.0000
  H   H3997     1.0  0.85046  0.69852  0.94666  1.0000
  H   H3998     1.0  0.80482  0.66985  0.92785  1.0000
  H   H3999     1.0  0.82362  0.65014  0.93888  1.0000
  H   H4000     1.0  0.84080  0.64879  0.90485  1.0000
  H   H4001     1.0  0.84426  0.67958  0.89000  1.0000
  H   H4002     1.0  0.82950  0.72104  0.89932  1.0000
  H   H4003     1.0  0.80936  0.71521  0.91513  1.0000
  H   H4004     1.0  0.84535  0.74458  0.92686  1.0000
  H   H4005     1.0  0.82960  0.73372  0.94743  1.0000
  H   H4006     1.0  0.87275  0.67999  0.90731  1.0000
  H   H4007     1.0  0.86279  0.71424  0.90700  1.0000
  H   H4008     1.0  0.80746  0.68377  0.88813  1.0000
  H   H4009     1.0  0.80814  0.64820  0.89665  1.0000
  H   H4010     1.0  0.82636  0.68853  0.96678  1.0000
  H   H4011     1.0  0.80634  0.70559  0.95472  1.0000
  C   C2260     1.0  0.77361  0.62619  0.81562  1.0000
  H   H4012     1.0  0.77324  0.72464  0.86021  1.0000
  H   H4013     1.0  0.79777  0.71680  0.78878  1.0000
  H   H4014     1.0  0.80389  0.76111  0.93239  1.0000
  H   H4015     1.0  0.82398  0.78220  0.93569  1.0000
  H   H4016     1.0  0.81830  0.77023  0.90954  1.0000
  H   H4017     1.0  0.80725  0.65181  0.85793  1.0000
  H   H4018     1.0  0.82787  0.67234  0.85701  1.0000
  H   H4019     1.0  0.82933  0.63663  0.86570  1.0000
  N   N124      1.0  0.90081  0.68206  0.84611  1.0000
  C   C2261     1.0  0.89862  0.67221  0.86884  1.0000
  C   C2262     1.0  0.88357  0.69848  0.83924  1.0000
  C   C2263     1.0  0.90255  0.65687  0.83222  1.0000
  C   C2264     1.0  0.91822  0.69866  0.84280  1.0000
  C   C2265     1.0  0.92106  0.72233  0.85865  1.0000
  C   C2266     1.0  0.91469  0.65354  0.87753  1.0000
  C   C2267     1.0  0.90467  0.66235  0.80796  1.0000
  C   C2268     1.0  0.87180  0.71376  0.85670  1.0000
  C   C2269     1.0  0.85544  0.73007  0.84715  1.0000
  C   C2270     1.0  0.93814  0.73898  0.85223  1.0000
  C   C2271     1.0  0.91258  0.64949  0.90157  1.0000
  C   C2272     1.0  0.90461  0.63530  0.79563  1.0000
  H   H4020     1.0  0.88558  0.66020  0.87067  1.0000
  H   H4021     1.0  0.89699  0.68998  0.87979  1.0000
  H   H4022     1.0  0.88725  0.71384  0.82667  1.0000
  H   H4023     1.0  0.87338  0.68474  0.83165  1.0000
  H   H4024     1.0  0.89016  0.64371  0.83491  1.0000
  H   H4025     1.0  0.91490  0.64395  0.83650  1.0000
  H   H4026     1.0  0.93097  0.68501  0.84316  1.0000
  H   H4027     1.0  0.91844  0.70811  0.82663  1.0000
  H   H4028     1.0  0.92334  0.71414  0.87495  1.0000
  H   H4029     1.0  0.90893  0.73683  0.85886  1.0000
  H   H4030     1.0  0.91443  0.63277  0.87028  1.0000
  H   H4031     1.0  0.92859  0.66242  0.87424  1.0000
  H   H4032     1.0  0.91816  0.67232  0.80423  1.0000
  H   H4033     1.0  0.89315  0.67581  0.80198  1.0000
  H   H4034     1.0  0.86571  0.69865  0.86794  1.0000
  H   H4035     1.0  0.88018  0.72817  0.86586  1.0000
  H   H4036     1.0  0.84615  0.71629  0.83840  1.0000
  H   H4037     1.0  0.84705  0.74019  0.86008  1.0000
  H   H4038     1.0  0.86063  0.74632  0.83615  1.0000
  H   H4039     1.0  0.95079  0.72540  0.85069  1.0000
  H   H4040     1.0  0.93587  0.74985  0.83687  1.0000
  H   H4041     1.0  0.94071  0.75455  0.86462  1.0000
  H   H4042     1.0  0.89856  0.64157  0.90586  1.0000
  H   H4043     1.0  0.92327  0.63422  0.90708  1.0000
  H   H4044     1.0  0.91470  0.66923  0.90991  1.0000
  H   H4045     1.0  0.91632  0.62142  0.80066  1.0000
  H   H4046     1.0  0.96153  0.58292  0.72805  1.0000
  S   S507      1.0  0.78297  0.78081  0.79255  1.0000
  C   C2273     1.0  0.90572  0.50032  0.89492  1.0000
  H   H4047     1.0  0.81309  0.58617  0.82913  1.0000
  H   H4048     1.0  0.83528  0.97161  0.91337  1.0000
  H   H4049     1.0  0.97410  0.60801  0.70133  1.0000
  C   C2274     1.0  0.97478  0.55129  0.70738  1.0000
  H   H4050     1.0  0.85492  0.51916  0.98019  1.0000
  H   H4051     1.0  0.83507  0.93731  0.94316  1.0000
  H   H4052     1.0  0.77491  0.69835  0.81568  1.0000
  H   H4053     1.0  0.78022  0.48416  0.86938  1.0000
  C   C2275     1.0  0.85507  0.51016  0.93652  1.0000
  H   H4054     1.0  0.83902  0.54414  0.96820  1.0000
  C   C2276     1.0  0.00795  0.51598  0.89052  1.0000
  C   C2277     1.0  0.00934  0.85095  0.70526  1.0000
  C   C2278     1.0  0.84705  0.92725  0.93451  1.0000
  H   H4055     1.0  0.99741  0.88844  0.69297  1.0000
  C   C2279     1.0  0.00425  0.57581  0.69889  1.0000
  N   N125      1.0  0.98522  0.56830  0.69111  1.0000
  C   C2280     1.0  0.89005  0.49678  0.91150  1.0000
  C   C2281     1.0  0.80236  0.70397  0.80251  1.0000
  C   C2282     1.0  0.79360  0.61352  0.81265  1.0000
  H   H4056     1.0  0.86388  0.96290  0.93723  1.0000
  H   H4057     1.0  0.85516  0.91476  0.94614  1.0000
  H   H4058     1.0  0.96044  0.55561  0.76087  1.0000
  H   H4059     1.0  0.83577  0.50976  0.84795  1.0000
  C   C2283     1.0  0.79851  0.93784  0.90805  1.0000
  C   C2284     1.0  0.84106  0.52209  0.97274  1.0000
  H   H4060     1.0  0.97307  0.52736  0.74837  1.0000
  H   H4061     1.0  0.79332  0.65667  0.78405  1.0000
  H   H4062     1.0  0.94959  0.67618  0.98414  1.0000
  C   C2285     1.0  0.85953  0.94907  0.92437  1.0000
  C   C2286     1.0  0.79408  0.86655  0.94016  1.0000
  N   N126      1.0  0.85375  0.49624  0.91522  1.0000
  C   C2287     1.0  0.81331  0.85339  0.93527  1.0000
  C   C2288     1.0  0.87069  0.50420  0.90201  1.0000
  H   H4063     1.0  0.97494  0.50651  0.82795  1.0000
  H   H4064     1.0  0.88903  0.69017  0.94106  1.0000
  H   H4065     1.0  0.84610  0.95064  0.89376  1.0000
  H   H4066     1.0  0.76409  0.60860  0.81824  1.0000
  C   C2289     1.0  0.76992  0.69956  0.91071  1.0000
  C   C2290     1.0  0.97408  0.59455  0.68704  1.0000
  Fe  Fe256     1.0  0.77336  0.57948  0.95148  1.0000
  H   H4067     1.0  0.96066  0.54647  0.70159  1.0000
  S   S508      1.0  0.77468  0.75405  0.90035  1.0000
  C   C2291     1.0  0.83682  0.50786  0.90400  1.0000
  S   S509      1.0  0.76745  0.62666  0.87897  1.0000
  H   H4068     1.0  0.87045  0.49429  0.88615  1.0000
  C   C2292     1.0  0.88356  0.70704  0.93071  1.0000
  H   H4069     1.0  0.83711  0.53085  0.90362  1.0000
  H   H4070     1.0  0.79473  0.60110  0.79792  1.0000
  H   H4071     1.0  0.00243  0.51014  0.84927  1.0000
  H   H4072     1.0  0.87040  0.52690  0.89885  1.0000
  H   H4073     1.0  0.82863  0.53695  0.86583  1.0000
  H   H4074     1.0  0.98246  0.68499  0.99062  1.0000
  H   H4075     1.0  0.76964  0.70640  0.92705  1.0000
  H   H4076     1.0  0.76674  0.90323  0.94190  1.0000
  C   C2293     1.0  0.83383  0.49707  0.88108  1.0000
  H   H4077     1.0  0.90511  0.52146  0.88805  1.0000
  H   H4078     1.0  0.82378  0.50380  0.91309  1.0000
  S   S510      1.0  0.00038  0.65681  0.71581  1.0000
  C   C2294     1.0  0.76824  0.67135  0.90625  1.0000
  H   H4079     1.0  0.77301  0.63742  0.83095  1.0000
  H   H4080     1.0  0.01042  0.64337  0.94732  1.0000
  H   H4081     1.0  0.82546  0.50695  0.94691  1.0000
  H   H4082     1.0  0.01142  0.66548  0.97674  1.0000
  S   S511      1.0  0.76717  0.80801  0.85223  1.0000
  H   H4083     1.0  0.00393  0.69755  0.92231  1.0000
  H   H4084     1.0  0.89305  0.51086  0.92478  1.0000
  C   C2295     1.0  0.77890  0.85465  0.92572  1.0000
  H   H4085     1.0  0.80791  0.55461  0.00032  1.0000
  H   H4086     1.0  0.99281  0.51763  0.89478  1.0000
  C   C2296     1.0  0.98798  0.55167  0.67106  1.0000
  C   C2297     1.0  0.76992  0.68173  0.86869  1.0000
  C   C2298     1.0  0.77195  0.70989  0.87310  1.0000
  H   H4087     1.0  0.99619  0.51141  0.81321  1.0000
  C   C2299     1.0  0.87746  0.97920  0.88741  1.0000
  N   N127      1.0  0.76669  0.64434  0.79769  1.0000
  H   H4088     1.0  0.76636  0.65680  0.91913  1.0000
  H   H4089     1.0  0.90207  0.97327  0.85201  1.0000
  N   N128      1.0  0.00921  0.70144  0.95602  1.0000
  C   C2300     1.0  0.97375  0.49561  0.79521  1.0000
  H   H4090     1.0  0.99572  0.61853  0.67050  1.0000
  H   H4091     1.0  0.88481  0.48323  0.84844  1.0000
  H   H4092     1.0  0.00778  0.71112  0.99924  1.0000
  H   H4093     1.0  0.91517  0.97620  0.87624  1.0000
  H   H4094     1.0  0.81890  0.49162  0.87955  1.0000
  H   H4095     1.0  0.01150  0.84129  0.68938  1.0000
  S   S512      1.0  0.94649  0.48265  0.85754  1.0000
  H   H4096     1.0  0.84110  0.48195  0.95873  1.0000
  C   C2301     1.0  0.01221  0.48991  0.87761  1.0000
  C   C2302     1.0  0.01132  0.64265  0.91348  1.0000
  C   C2303     1.0  0.00923  0.88238  0.70326  1.0000
  C   C2304     1.0  0.01166  0.68646  0.93512  1.0000
