data_image0
_chemical_formula_structural       CFeS2FeSFeSH2FeS2HSCFeSFeSHSFeS2FeCSFeSHSFeHSFeHSFeSHS2CH3C2H2C6H4CH3C2HCH2CHC2H7C2H4C5H5C5H5C6H4C4H5CNH8C2H6C2H4C2SCHCH3C4H7C2H2CHCHCHCHCNFeCH5NH2CHC2H7C2HCHSH2CHSHNC11H14CH12NC4HC2HCHC2H6SH9CHCH9CHC3H2C4HCSCH10C2H3SCHCHCH3CH2CSHCH2CH2CH3C3NH5C2H2C2H6C2H3SH3C2H4CFeHCFeS2FeHFeS3FeSFeSHFeS2FeHFeSHSFeSC6H6CHC7H6C6H4C2H7CH3CHCHCHCH4CH4SH3CHC2NH8CHC3HSHCHCH2C2H2SH3SH4NH2CH2C2H3CHSH3CH4C2H3CH3CH2CH6CH5C3NC8HC2H17SH10C2NCH4CH2CH2C2H3SHC2HC2HCH2CH2CHCH2C2H2CHCH3CHC2H2CHFeHSFeS2FeS2CS3FeHSHCSFeSHSHS2CHCFeH4CHCHCH4C2HCH2C2HCHC2H7C2NCH4CH3FeH7NC2HSH3NCH2CH2C2H2CH4C2HFeHSNHC3H2CH2CHCHCH6CH5CH2C2HCHCH4CH4CH3CH3CH2CH2C4HCHC2HCHFeSH3SNH4CHC3HC2HCH4CHNH2CH5C3HCH9CH3CHCHNH2CHCH2CHC2H3CHC2H2C2HCH4SCH2CH2NHC4H2CHCH5CH2CHC3HC5H5CH3C2H2CH2CHC4H4C2HCH3C2HC2HC2H2C2H9CHCFe2SFeHSCSFeH2SHSHCSFeSFeS2CFeHSFeS2FeSCS3HSFeCSFeSFeSHC7H4CHC2H3C2H4C6H4CSC4H2CHC6H4C6H4FeH3C2HCH3C2HCH3CH8CHCH5CH5C2HC2HSH5CNCNHC3SH2C2HCH11NH12CH2NHCHSC2HCH6C2HC3H6CH3C2H3CSH3NC7H2C3H9CH6C3HCHFeHCH8CSH5CHCHSHC4H2CHSHFeHCHCH3CHCSH2CH7CH5CHNCH2C2H6C4FeS2CSFeSCHFeSH2SCFeSFeSCSFeHSFeS2FeSHSFeNSFeHSFeSHS2HC4H3C6H6C4H2CH2CHC2H5CH6C4HCH4C2HC2HCH2C7H4NH3C2H2SCSHCHCHC3H2CH8FeH3CHCHC2H5C3H3CH5CHC3H3FeCHC2H3C4H2CH3NC8HC3H16SH5CH5SH5C2SH4CH5CHCHC3NH4FeH3SCH5C3H4C3H3CHNCHC2HFeH2CH4CHCH5CSCH3CHNHCHCHCH3NC2H2CHCH4CH4C3H2C2HCH2NHCH5CH2CFeS2FeCFeS3FeSFeSCFeS2FeCFeSCSFeSC6H5CHC3HC3H5C8H7CHCHCS2HCH2CH7CHCH4CHNCH2SHCH2CH2CH2CHCH4CH2CH2C2HCH3C3SH4CHCH8CH2C2H3NH3CHCSH2C2H3CH8CH4C2H4CH2C3H2FeH8CH2C2H2CH3C2NHCH3CH2C2H4CH3CH3S2H3CH3CHNHC2HCH3CH2CH3CH2S2C2H7CH4CH7CFeCSFeSHFeSCHS3FeHSFeCSHSFeSHS2CH5CSH2NCSH4CH3C3HC4H4CH3CHCNHCH2CHC4HCHSH2C2H6CH2CHCH3CH5C5H2CH3CH3CHCH5C2H2C3H2CHCH3CH3C2HFeCHC3HCHCH3CH4CHSHNC2HC3HC5H4FeCH7CH15C2H3C2HC4H4CHCHCH2CNH3CHSH5CH6C3HSNCHC2H3CHCH4CHCH2CH2CHCH7FeS2FeHSCSFeSHSHSCHSFeSFeS2CFeCSFeS2FeSHS3HSHS2FeSFeSHSC6H8CHSHCH2CHC6H5C3FeCH2CHC6H4C6H5CH3C2H8CH2C2H8CHSCHCHNHCNH5FeHNC7HCH8CH11SH5CHC2HCH6SH2C2HC3H2C3H2C2HC2FeC2H3CH3CH2CH2CNC2H2CH8CH5CHCFeCH2C3H2CH3C2H2CHCHC2H6CHC2H4FeCH3CH2CH2NCH3CHC3HNCH5SHCH4CH7CH11NH2CHCHC2HSHCHCHCH4CSFe2S2FeSFeSCHFeS2HS2FeSFeSCSFeCSFeHSFeSCSFeHSFeCSFeSCS2C3H5C6H4C2H2C2H4CHC3H5SH2C2H2C5H2CH2C2HC3H4C6H5CH2CNC2H8CHCH3CH3FeHCSH4CH12CH2CH4NC6H2C2H13C2HCH6NCHC4H3C3H16CSC2HCH3C2SCSCH4C3H3CHCH5C2HCH3CHCNC4SC2H3C2H16CH5C2H9CHC2HC2H2SHCHC2HCHCH3SH6CH2CH2C2H3FeS2FeHFeS3HSFeSHFeS2FeHFeSCSFeSC6H6CHC6H4CSHC6H7CH2C5HC3HC2H3C4NC12H30CHCH4CH5SCH3NCH6CSH2NH6CSH6SCHCH7CHCSCH3C4H2NC8HC2FeH13CH11CH2NC3HC2HC2H2CH4CH2CH2C2H4SFeH2CHCHCH2CH3C2H2NSHCHCH10FeHSFeSHFeSFeCS3FeCSH3C2FeSHS2C2H2CHCFeH2C2SH6SH2C2HCHC2NH8CSC2H2CH3CH5CHCH4CSH4CH3SC2HNCHCH2C3H2CH2CHCH3CH6CHC4H7C2H2CNCH2CH2SHCHCHCFeH4NH2CH2CHCH3CH2CHCH4C6H4SHSH4C5HNH2CHCHC2HCH6CH2CH5C2H10CH3CH2CHC4HC2H5CH4CH3CHC2H3CH3CH3C3HNC2HC3HCH2C2H5FeHSFeCSHSFeSHSHSH2SFeSFeS2HFeHSFeS2FeH3S4FeCSHCFeSC8H6C4HC2H4C6H4SC2H5CHC6H4C6H7CHCFeH4CH3CHCHCH5CHNH3CHNH3CSH3CH2CH3CH2C3HC2HC3SH7CHCH5CH2CH3SCHCFeCHNC2HC3HC2H7CH4CH4CH3FeHCHCSH7CH3FeH4SH4CH2C2HC2HNC3H2C2H4FeH4CSH4CHC3HCH3FeCH2CH4CHNC2HC4H2CH11SH4SC2SHNHCH2CH2C3HFeS2FeHFeS3FeS2HSHFeSFeSCSFeHSFeHSFeSHSC3FeCSFeSC2SH2NH4C7H5SC2H2CH2SCHC2H4CH2CHC2H2C4H5C5HSH3C7H9CH3CHC2H2SNH3C2H3CFeH7CHCHC2HCH2NC3H2C5H10C2H2CH7NC2HCHCH3C2H3C3HC4H3NCH4CH3CH8CH4C2HC2H10CH2CHCHSHCHCHCHSCNHC2H4CHCH2FeHCHC2H4CH3C3H2FeHCHCHC2H2CHCH4CH3CH3C4SC3NHNSH3SCH4CH6CH5CHFeH2FeS2FeSFeS5FeSHFeS2FeSFeSHSFeSC6H5CH2C6H7C6H7C2H2CHCH3CH4NHC2H2CNC12H30CH2SH2SCHC2H2CH3CH2CH7C3H6C3FeH5CSHC2H4CHSHNH6CNCH4C2H7CH3CNC12H20C3H5C2H2CH2CH3CH6CHCH2C2HCH4CHFeHSFeSHFeSC2S3FeS2FeHS3FeSCS2CHSC2HCHCH2CH2CH2CH4CHCH3CHCH3C2H2CHC3H2C2HC2H5CHCH4C2NCH2NHC2HC2HCH5CSH4CH3NH2CH4CH4CH3C2H3C2H6C2H2SC2HCH6CHSCH8C2H2CHC3H2CHSHCHCH6CH10C2SHCHCHCH3C3H2CFeNH5CHC3H3CH2CH4C3H2NC2HC5HSH3C3H6CNH2CH2FeH4CH2C2H2CHC2HCHCHCH3CH3CH2CHCH5C2HFeH3FeS2FeHSCSFeCS2HSH2SFeSFeS2CFeHSFeHSFeSHS3HSH2SFeSFeSHSC6H6C2HCHC2H2CHC6H5CSH2C2H3C6H4C6H5CHC3H4C3HC2HCH2C3H2C2H7S2HC2H2CHC3SH4CH5CH3C2H8NCHCH10CH2CHCH2C4H2C3H3C3H4SH6CHCHCH7CHCH2CH3C2HCHC3H6C2HCH6CHFeH2CH5C2H6CHCHFeHCH2CHCHCH2CH9SFeHNFe2C2HCH2CNH3N2H2NHC2H2CHCH4CHCHCH5CSHNHSHCFeHCH4CH3SHCH
_chemical_formula_sum              "C1728 Fe192 S384 H3072 N96"
_cell_length_a       59.4279
_cell_length_b       59.6509
_cell_length_c       56.5647
_cell_angle_alpha    90.0417
_cell_angle_beta     90.1416
_cell_angle_gamma    119.905

_space_group_name_H-M_alt    "P 1"
_space_group_IT_number       1

loop_
  _space_group_symop_operation_xyz
  'x, y, z'

loop_
  _atom_site_type_symbol
  _atom_site_label
  _atom_site_symmetry_multiplicity
  _atom_site_fract_x
  _atom_site_fract_y
  _atom_site_fract_z
  _atom_site_occupancy
  C   C1        1.0  0.00656  0.12732  0.16889  1.0000
  Fe  Fe1       1.0  0.34753  0.36100  0.23371  1.0000
  S   S1        1.0  0.34712  0.33700  0.20287  1.0000
  S   S2        1.0  0.33616  0.39182  0.23297  1.0000
  Fe  Fe2       1.0  0.32699  0.30305  0.22768  1.0000
  S   S3        1.0  0.29305  0.26168  0.22066  1.0000
  Fe  Fe3       1.0  0.38583  0.34432  0.21757  1.0000
  S   S4        1.0  0.41894  0.35662  0.18992  1.0000
  H   H1        1.0  0.98852  0.40268  0.06055  1.0000
  H   H2        1.0  0.34506  0.25618  0.20181  1.0000
  Fe  Fe4       1.0  0.35163  0.00936  0.09215  1.0000
  S   S5        1.0  0.35454  0.03881  0.11900  1.0000
  S   S6        1.0  0.36334  0.01948  0.05357  1.0000
  H   H3        1.0  0.07929  0.14980  0.12657  1.0000
  S   S7        1.0  0.33155  0.99277  0.15775  1.0000
  C   C2        1.0  0.05665  0.06234  0.09917  1.0000
  Fe  Fe5       1.0  0.31418  0.00741  0.13028  1.0000
  S   S8        1.0  0.28064  0.01646  0.13395  1.0000
  Fe  Fe6       1.0  0.37180  0.02158  0.14422  1.0000
  S   S9        1.0  0.40578  0.03666  0.17174  1.0000
  H   H4        1.0  0.44062  0.32975  0.21678  1.0000
  S   S10       1.0  0.37122  0.99443  0.11635  1.0000
  Fe  Fe7       1.0  0.13479  0.17568  0.22411  1.0000
  S   S11       1.0  0.35031  0.44523  0.13355  1.0000
  S   S12       1.0  0.16963  0.21283  0.20933  1.0000
  Fe  Fe8       1.0  0.07511  0.13467  0.21900  1.0000
  C   C3        1.0  0.42519  0.98414  0.16306  1.0000
  S   S13       1.0  0.03374  0.11469  0.20206  1.0000
  Fe  Fe9       1.0  0.11578  0.11850  0.23000  1.0000
  S   S14       1.0  0.12643  0.08726  0.22680  1.0000
  H   H5        1.0  0.20215  0.44363  0.15812  1.0000
  S   S15       1.0  0.11145  0.14102  0.20037  1.0000
  Fe  Fe10      1.0  0.12587  0.45537  0.12818  1.0000
  H   H6        1.0  0.46227  0.31769  0.22125  1.0000
  S   S16       1.0  0.16011  0.45020  0.14066  1.0000
  Fe  Fe11      1.0  0.06698  0.44008  0.13705  1.0000
  H   H7        1.0  0.24413  0.33221  0.20195  1.0000
  S   S17       1.0  0.03218  0.42513  0.16336  1.0000
  Fe  Fe12      1.0  0.09110  0.45120  0.08691  1.0000
  S   S18       1.0  0.08301  0.44069  0.04809  1.0000
  H   H8        1.0  0.39774  0.30269  0.20132  1.0000
  S   S19       1.0  0.11813  0.04160  0.12509  1.0000
  S   S20       1.0  0.08687  0.42276  0.11541  1.0000
  C   C4        1.0  0.05038  0.06674  0.17926  1.0000
  H   H9        1.0  0.28408  0.31387  0.20915  1.0000
  H   H10       1.0  0.07115  0.06765  0.13519  1.0000
  H   H11       1.0  0.23395  0.40461  0.01583  1.0000
  C   C5        1.0  0.11615  0.00883  0.01549  1.0000
  C   C6        1.0  0.07723  0.11372  0.13748  1.0000
  H   H12       1.0  0.10824  0.99827  0.05241  1.0000
  H   H13       1.0  0.12393  0.02924  0.01884  1.0000
  C   C7        1.0  0.12720  0.07679  0.19807  1.0000
  C   C8        1.0  0.12171  0.08759  0.17857  1.0000
  C   C9        1.0  0.12052  0.07764  0.15591  1.0000
  C   C10       1.0  0.12372  0.05614  0.15288  1.0000
  C   C11       1.0  0.13045  0.04608  0.17218  1.0000
  C   C12       1.0  0.13271  0.05679  0.19471  1.0000
  H   H14       1.0  0.11794  0.10326  0.18088  1.0000
  H   H15       1.0  0.11630  0.08607  0.14085  1.0000
  H   H16       1.0  0.13408  0.03020  0.16970  1.0000
  H   H17       1.0  0.13825  0.04924  0.20959  1.0000
  C   C13       1.0  0.24587  0.99774  0.13637  1.0000
  H   H18       1.0  0.04970  0.01144  0.21023  1.0000
  H   H19       1.0  0.44562  0.23137  0.20371  1.0000
  H   H20       1.0  0.17552  0.02934  0.06706  1.0000
  C   C14       1.0  0.20378  0.99663  0.13660  1.0000
  C   C15       1.0  0.23121  0.01038  0.13467  1.0000
  H   H21       1.0  0.31669  0.41306  0.08770  1.0000
  C   C16       1.0  0.04718  0.09738  0.13556  1.0000
  H   H22       1.0  0.19303  0.00682  0.13537  1.0000
  H   H23       1.0  0.24120  0.03107  0.13191  1.0000
  C   C17       1.0  0.44016  0.05746  0.17682  1.0000
  H   H24       1.0  0.02002  0.41476  0.07438  1.0000
  C   C18       1.0  0.16837  0.27697  0.23598  1.0000
  C   C19       1.0  0.00582  0.10892  0.18475  1.0000
  H   H25       1.0  0.97819  0.98984  0.21465  1.0000
  H   H26       1.0  0.42328  0.99241  0.21422  1.0000
  H   H27       1.0  0.04350  0.03750  0.12981  1.0000
  H   H28       1.0  0.02420  0.14578  0.16723  1.0000
  H   H29       1.0  0.13021  0.01324  0.23971  1.0000
  H   H30       1.0  0.21141  0.01969  0.05743  1.0000
  H   H31       1.0  0.42485  0.42412  0.22651  1.0000
  C   C20       1.0  0.35065  0.99600  0.03070  1.0000
  C   C21       1.0  0.27894  0.32885  0.20455  1.0000
  H   H32       1.0  0.41541  0.25546  0.21899  1.0000
  H   H33       1.0  0.39356  0.42160  0.22983  1.0000
  H   H34       1.0  0.27402  0.99934  0.03336  1.0000
  H   H35       1.0  0.43846  0.04300  0.21206  1.0000
  C   C22       1.0  0.25889  0.24994  0.21898  1.0000
  C   C23       1.0  0.24819  0.25712  0.20039  1.0000
  C   C24       1.0  0.22098  0.24556  0.19780  1.0000
  C   C25       1.0  0.20387  0.22636  0.21352  1.0000
  C   C26       1.0  0.21449  0.21892  0.23199  1.0000
  H   H36       1.0  0.19868  0.27750  0.21526  1.0000
  H   H37       1.0  0.26090  0.27120  0.18761  1.0000
  H   H38       1.0  0.21311  0.25135  0.18329  1.0000
  H   H39       1.0  0.10750  0.15375  0.14223  1.0000
  H   H40       1.0  0.21549  0.01647  0.08826  1.0000
  C   C27       1.0  0.45367  0.37365  0.18603  1.0000
  C   C28       1.0  0.43052  0.26868  0.20629  1.0000
  C   C29       1.0  0.98764  0.40392  0.19101  1.0000
  C   C30       1.0  0.99833  0.40280  0.16908  1.0000
  C   C31       1.0  0.98174  0.38447  0.15250  1.0000
  H   H41       1.0  0.43337  0.31960  0.17402  1.0000
  H   H42       1.0  0.45074  0.37117  0.14801  1.0000
  H   H43       1.0  0.00022  0.41744  0.20428  1.0000
  H   H44       1.0  0.98945  0.38298  0.13564  1.0000
  H   H45       1.0  0.43040  0.29072  0.16320  1.0000
  C   C32       1.0  0.34050  0.40703  0.20550  1.0000
  C   C33       1.0  0.33165  0.42462  0.20208  1.0000
  C   C34       1.0  0.33481  0.43677  0.18009  1.0000
  C   C35       1.0  0.34666  0.43114  0.16148  1.0000
  C   C36       1.0  0.35561  0.41368  0.16499  1.0000
  C   C37       1.0  0.35275  0.40182  0.18701  1.0000
  H   H46       1.0  0.32217  0.42871  0.21638  1.0000
  H   H47       1.0  0.32761  0.45003  0.17738  1.0000
  H   H48       1.0  0.36483  0.40933  0.15062  1.0000
  H   H49       1.0  0.36004  0.38866  0.18960  1.0000
  C   C38       1.0  0.05202  0.05858  0.12626  1.0000
  C   C39       1.0  0.25427  0.40947  0.01944  1.0000
  C   C40       1.0  0.25029  0.31966  0.21117  1.0000
  C   C41       1.0  0.19848  0.98442  0.02317  1.0000
  H   H50       1.0  0.16418  0.47083  0.19021  1.0000
  H   H51       1.0  0.00824  0.46112  0.19713  1.0000
  H   H52       1.0  0.08639  0.11220  0.12095  1.0000
  H   H53       1.0  0.25389  0.39587  0.03296  1.0000
  H   H54       1.0  0.06414  0.06047  0.17335  1.0000
  C   C42       1.0  0.04020  0.05484  0.20357  1.0000
  N   N1        1.0  0.03492  0.06822  0.13643  1.0000
  H   H55       1.0  0.19248  0.99922  0.02509  1.0000
  H   H56       1.0  0.20668  0.05208  0.07949  1.0000
  H   H57       1.0  0.02884  0.06310  0.21154  1.0000
  H   H58       1.0  0.44368  0.06055  0.07145  1.0000
  H   H59       1.0  0.41321  0.24731  0.17282  1.0000
  H   H60       1.0  0.98540  0.13663  0.14325  1.0000
  H   H61       1.0  0.43156  0.01228  0.13587  1.0000
  H   H62       1.0  0.18217  0.02790  0.09815  1.0000
  C   C43       1.0  0.28343  0.33406  0.17805  1.0000
  C   C44       1.0  0.35857  0.00361  0.00726  1.0000
  H   H63       1.0  0.23143  0.44474  0.03720  1.0000
  H   H64       1.0  0.34012  0.44515  0.02611  1.0000
  H   H65       1.0  0.44704  0.43063  0.18625  1.0000
  H   H66       1.0  0.99613  0.08159  0.13611  1.0000
  H   H67       1.0  0.00178  0.03492  0.12059  1.0000
  H   H68       1.0  0.39490  0.47483  0.17897  1.0000
  C   C45       1.0  0.19437  0.46775  0.13508  1.0000
  C   C46       1.0  0.04901  0.99553  0.19970  1.0000
  H   H69       1.0  0.99299  0.41135  0.09148  1.0000
  H   H70       1.0  0.05682  0.05927  0.21547  1.0000
  H   H71       1.0  0.06087  0.08796  0.18184  1.0000
  H   H72       1.0  0.98007  0.42713  0.12948  1.0000
  C   C47       1.0  0.01009  0.05626  0.12208  1.0000
  C   C48       1.0  0.97415  0.44017  0.13790  1.0000
  S   S21       1.0  0.10581  0.47013  0.15228  1.0000
  C   C49       1.0  0.42866  0.22723  0.19239  1.0000
  H   H73       1.0  0.30293  0.03023  0.02815  1.0000
  C   C50       1.0  0.98442  0.12205  0.15525  1.0000
  H   H74       1.0  0.12206  0.00074  0.21004  1.0000
  H   H75       1.0  0.38848  0.27267  0.16495  1.0000
  H   H76       1.0  0.44407  0.41513  0.15830  1.0000
  C   C51       1.0  0.19058  0.03173  0.08010  1.0000
  C   C52       1.0  0.02776  0.05856  0.16149  1.0000
  C   C53       1.0  0.05129  0.00321  0.17364  1.0000
  C   C54       1.0  0.09708  0.46532  0.02652  1.0000
  H   H77       1.0  0.00551  0.47401  0.12060  1.0000
  H   H78       1.0  0.46391  0.37942  0.22292  1.0000
  H   H79       1.0  0.30570  0.00272  0.03689  1.0000
  H   H80       1.0  0.42128  0.02413  0.04356  1.0000
  H   H81       1.0  0.27980  0.34991  0.17275  1.0000
  H   H82       1.0  0.30392  0.34014  0.17376  1.0000
  H   H83       1.0  0.03848  0.44745  0.04241  1.0000
  C   C55       1.0  0.29406  0.00894  0.02624  1.0000
  C   C56       1.0  0.45352  0.43411  0.16756  1.0000
  H   H84       1.0  0.15455  0.25644  0.23137  1.0000
  H   H85       1.0  0.25010  0.46833  0.15273  1.0000
  C   C57       1.0  0.38098  0.26602  0.18301  1.0000
  H   H86       1.0  0.07038  0.45659  0.19897  1.0000
  C   C58       1.0  0.08363  0.47198  0.21138  1.0000
  H   H87       1.0  0.00792  0.43862  0.03023  1.0000
  C   C59       1.0  0.43881  0.30464  0.17803  1.0000
  H   H88       1.0  0.07519  0.03885  0.09613  1.0000
  C   C60       1.0  0.02254  0.45216  0.04301  1.0000
  H   H89       1.0  0.35557  0.28271  0.18122  1.0000
  C   C61       1.0  0.08600  0.14229  0.14134  1.0000
  N   N2        1.0  0.42742  0.29193  0.20146  1.0000
  Fe  Fe13      1.0  0.10581  0.99937  0.12612  1.0000
  C   C62       1.0  0.20098  0.01352  0.07441  1.0000
  H   H90       1.0  0.17248  0.13715  0.22887  1.0000
  H   H91       1.0  0.97701  0.00843  0.19003  1.0000
  H   H92       1.0  0.38838  0.45941  0.21743  1.0000
  H   H93       1.0  0.37817  0.24640  0.18594  1.0000
  H   H94       1.0  0.42894  0.21629  0.17659  1.0000
  N   N3        1.0  0.24451  0.31837  0.23726  1.0000
  H   H95       1.0  0.08516  0.10745  0.15210  1.0000
  H   H96       1.0  0.07809  0.14499  0.15823  1.0000
  C   C63       1.0  0.39921  0.28479  0.20224  1.0000
  H   H97       1.0  0.38755  0.99388  0.23460  1.0000
  C   C64       1.0  0.00932  0.44424  0.06761  1.0000
  C   C65       1.0  0.00030  0.47131  0.20753  1.0000
  H   H98       1.0  0.28197  0.39273  0.09013  1.0000
  H   H99       1.0  0.08141  0.06069  0.07187  1.0000
  H   H100      1.0  0.41630  0.99259  0.17463  1.0000
  H   H101      1.0  0.43765  0.03862  0.09567  1.0000
  H   H102      1.0  0.44938  0.27466  0.21535  1.0000
  H   H103      1.0  0.44783  0.26330  0.17395  1.0000
  H   H104      1.0  0.18412  0.47175  0.03017  1.0000
  C   C66       1.0  0.44299  0.00534  0.14592  1.0000
  C   C67       1.0  0.24178  0.23042  0.23451  1.0000
  H   H105      1.0  0.99114  0.44522  0.06774  1.0000
  C   C68       1.0  0.35413  0.26363  0.18427  1.0000
  H   H106      1.0  0.02756  0.03358  0.20225  1.0000
  S   S22       1.0  0.12772  0.98548  0.10438  1.0000
  H   H107      1.0  0.41047  0.21491  0.20231  1.0000
  H   H108      1.0  0.08927  0.00598  0.19956  1.0000
  C   C69       1.0  0.21068  0.46023  0.14651  1.0000
  H   H109      1.0  0.98136  0.07067  0.19879  1.0000
  S   S23       1.0  0.38668  0.36995  0.24728  1.0000
  H   H110      1.0  0.44473  0.47025  0.21719  1.0000
  N   N4        1.0  0.21065  0.15532  0.19297  1.0000
  C   C70       1.0  0.23499  0.17786  0.18295  1.0000
  C   C71       1.0  0.18730  0.15827  0.18727  1.0000
  C   C72       1.0  0.21395  0.15607  0.21952  1.0000
  C   C73       1.0  0.20644  0.12956  0.18432  1.0000
  C   C74       1.0  0.20278  0.12460  0.15738  1.0000
  C   C75       1.0  0.26109  0.17929  0.18931  1.0000
  C   C76       1.0  0.19002  0.13633  0.23385  1.0000
  C   C77       1.0  0.18773  0.17129  0.16329  1.0000
  C   C78       1.0  0.16101  0.16713  0.15667  1.0000
  C   C79       1.0  0.20119  0.09895  0.15092  1.0000
  C   C80       1.0  0.28372  0.20178  0.17653  1.0000
  H   H111      1.0  0.27055  0.31633  0.16774  1.0000
  H   H112      1.0  0.23649  0.19638  0.18905  1.0000
  H   H113      1.0  0.23419  0.17832  0.16341  1.0000
  H   H114      1.0  0.16913  0.13912  0.18808  1.0000
  H   H115      1.0  0.18483  0.17038  0.20093  1.0000
  H   H116      1.0  0.21980  0.17575  0.22630  1.0000
  H   H117      1.0  0.22980  0.15220  0.22456  1.0000
  H   H118      1.0  0.22242  0.12635  0.19040  1.0000
  H   H119      1.0  0.18854  0.11354  0.19233  1.0000
  H   H120      1.0  0.21907  0.14006  0.14728  1.0000
  H   H121      1.0  0.18418  0.12308  0.15167  1.0000
  H   H122      1.0  0.26524  0.18278  0.20852  1.0000
  H   H123      1.0  0.26090  0.16125  0.18420  1.0000
  H   H124      1.0  0.28018  0.47659  0.07592  1.0000
  C   C81       1.0  0.44133  0.31184  0.22068  1.0000
  H   H125      1.0  0.20123  0.19251  0.16461  1.0000
  H   H126      1.0  0.19427  0.16393  0.14845  1.0000
  H   H127      1.0  0.16206  0.17633  0.13934  1.0000
  H   H128      1.0  0.14665  0.14616  0.15525  1.0000
  H   H129      1.0  0.15443  0.17621  0.17003  1.0000
  H   H130      1.0  0.18496  0.08266  0.16047  1.0000
  H   H131      1.0  0.19753  0.09532  0.13164  1.0000
  H   H132      1.0  0.21965  0.09943  0.15534  1.0000
  H   H133      1.0  0.30220  0.20268  0.18167  1.0000
  H   H134      1.0  0.28135  0.19918  0.15706  1.0000
  H   H135      1.0  0.28501  0.22043  0.18151  1.0000
  H   H136      1.0  0.45855  0.02204  0.15574  1.0000
  N   N5        1.0  0.26473  0.44384  0.05198  1.0000
  C   C82       1.0  0.23666  0.43703  0.05290  1.0000
  C   C83       1.0  0.27056  0.43808  0.02752  1.0000
  C   C84       1.0  0.26911  0.42814  0.07052  1.0000
  C   C85       1.0  0.98832  0.06096  0.13146  1.0000
  H   H137      1.0  0.03456  0.00554  0.16847  1.0000
  C   C86       1.0  0.22838  0.44600  0.07540  1.0000
  C   C87       1.0  0.29468  0.42723  0.06845  1.0000
  H   H138      1.0  0.01409  0.06386  0.10369  1.0000
  C   C88       1.0  0.34495  0.46459  0.02130  1.0000
  H   H139      1.0  0.09755  0.07318  0.09973  1.0000
  C   C89       1.0  0.19893  0.43447  0.07612  1.0000
  C   C90       1.0  0.29808  0.41308  0.08945  1.0000
  H   H140      1.0  0.22381  0.41567  0.05167  1.0000
  H   H141      1.0  0.03906  0.04780  0.08951  1.0000
  H   H142      1.0  0.18616  0.11633  0.23079  1.0000
  H   H143      1.0  0.29158  0.44455  0.02575  1.0000
  H   H144      1.0  0.25283  0.40779  0.07074  1.0000
  H   H145      1.0  0.26910  0.43575  0.08850  1.0000
  S   S24       1.0  0.36554  0.30801  0.23997  1.0000
  H   H146      1.0  0.47031  0.33514  0.14172  1.0000
  H   H147      1.0  0.39024  0.27537  0.21929  1.0000
  H   H148      1.0  0.37755  0.98159  0.20507  1.0000
  H   H149      1.0  0.23418  0.43991  0.09175  1.0000
  H   H150      1.0  0.23745  0.46738  0.07578  1.0000
  H   H151      1.0  0.31174  0.44691  0.06802  1.0000
  H   H152      1.0  0.29485  0.41694  0.05216  1.0000
  H   H153      1.0  0.02207  0.45684  0.08190  1.0000
  H   H154      1.0  0.45492  0.99139  0.18836  1.0000
  C   C91       1.0  0.40919  0.47315  0.22136  1.0000
  H   H155      1.0  0.04207  0.10363  0.11880  1.0000
  C   C92       1.0  0.00226  0.41654  0.07379  1.0000
  H   H156      1.0  0.03888  0.10409  0.14970  1.0000
  H   H157      1.0  0.22709  0.99143  0.06582  1.0000
  H   H158      1.0  0.06950  0.02178  0.17058  1.0000
  H   H159      1.0  0.19191  0.43986  0.06009  1.0000
  H   H160      1.0  0.18902  0.41306  0.07744  1.0000
  H   H161      1.0  0.19355  0.44185  0.09188  1.0000
  H   H162      1.0  0.16497  0.28950  0.22370  1.0000
  H   H163      1.0  0.44907  0.07651  0.14310  1.0000
  H   H164      1.0  0.29872  0.42298  0.10630  1.0000
  C   C93       1.0  0.42993  0.25238  0.18462  1.0000
  H   H165      1.0  0.29264  0.34687  0.21383  1.0000
  C   C94       1.0  0.45103  0.05624  0.19870  1.0000
  C   C95       1.0  0.10729  0.99130  0.03456  1.0000
  C   C96       1.0  0.42804  0.02049  0.06073  1.0000
  H   H166      1.0  0.06080  0.08185  0.09355  1.0000
  H   H167      1.0  0.34128  0.25002  0.17044  1.0000
  C   C97       1.0  0.43107  0.30357  0.24624  1.0000
  C   C98       1.0  0.07908  0.05854  0.09135  1.0000
  C   C99       1.0  0.08492  0.01402  0.24453  1.0000
  C   C100      1.0  0.43018  0.04092  0.07837  1.0000
  H   H168      1.0  0.97910  0.45149  0.02595  1.0000
  C   C101      1.0  0.98242  0.08509  0.18656  1.0000
  S   S25       1.0  0.06896  0.46614  0.10737  1.0000
  C   C102      1.0  0.17888  0.98476  0.07416  1.0000
  H   H169      1.0  0.97915  0.04892  0.14736  1.0000
  H   H170      1.0  0.97457  0.06645  0.09733  1.0000
  H   H171      1.0  0.23952  0.27997  0.23952  1.0000
  H   H172      1.0  0.10217  0.02869  0.23473  1.0000
  H   H173      1.0  0.44705  0.44665  0.15895  1.0000
  H   H174      1.0  0.26698  0.44953  0.01408  1.0000
  H   H175      1.0  0.01606  0.03703  0.16154  1.0000
  H   H176      1.0  0.44781  0.02348  0.05819  1.0000
  H   H177      1.0  0.07071  0.02091  0.24321  1.0000
  H   H178      1.0  0.36352  0.47641  0.22295  1.0000
  C   C103      1.0  0.45688  0.07503  0.15994  1.0000
  C   C104      1.0  0.46392  0.37768  0.16294  1.0000
  H   H179      1.0  0.45180  0.99776  0.13326  1.0000
  H   H180      1.0  0.05141  0.98816  0.16218  1.0000
  H   H181      1.0  0.01383  0.46628  0.14888  1.0000
  S   S26       1.0  0.09801  0.17156  0.24054  1.0000
  C   C105      1.0  0.23796  0.47418  0.14341  1.0000
  H   H182      1.0  0.20167  0.20425  0.24432  1.0000
  C   C106      1.0  0.99820  0.46710  0.13873  1.0000
  H   H183      1.0  0.41842  0.45049  0.19696  1.0000
  C   C107      1.0  0.28264  0.47212  0.05729  1.0000
  H   H184      1.0  0.21144  0.32301  0.22914  1.0000
  H   H185      1.0  0.23859  0.30034  0.20286  1.0000
  H   H186      1.0  0.01524  0.06553  0.16943  1.0000
  C   C108      1.0  0.42342  0.45815  0.21527  1.0000
  H   H187      1.0  0.30324  0.47695  0.05595  1.0000
  H   H188      1.0  0.41097  0.03939  0.08114  1.0000
  C   C109      1.0  0.09254  0.45861  0.00250  1.0000
  S   S27       1.0  0.07863  0.10995  0.24742  1.0000
  H   H189      1.0  0.37181  0.02377  0.00339  1.0000
  C   C110      1.0  0.97713  0.45109  0.22158  1.0000
  H   H190      1.0  0.17244  0.98064  0.09293  1.0000
  H   H191      1.0  0.24969  0.22412  0.24858  1.0000
  C   C111      1.0  0.41479  0.43489  0.23152  1.0000
  H   H192      1.0  0.41039  0.46011  0.14562  1.0000
  H   H193      1.0  0.98311  0.43992  0.23317  1.0000
  C   C112      1.0  0.47120  0.38223  0.20504  1.0000
  H   H194      1.0  0.15754  0.99557  0.22644  1.0000
  H   H195      1.0  0.16211  0.98346  0.06407  1.0000
  H   H196      1.0  0.21934  0.99302  0.02767  1.0000
  C   C113      1.0  0.07099  0.99012  0.20706  1.0000
  C   C114      1.0  0.12098  0.99531  0.22892  1.0000
  C   C115      1.0  0.19616  0.28208  0.23371  1.0000
  N   N6        1.0  0.07422  0.98765  0.23326  1.0000
  H   H197      1.0  0.41159  0.30152  0.24826  1.0000
  H   H198      1.0  0.08976  0.46294  0.22523  1.0000
  H   H199      1.0  0.40993  0.47607  0.24082  1.0000
  H   H200      1.0  0.05333  0.47026  0.23297  1.0000
  H   H201      1.0  0.26308  0.98231  0.07241  1.0000
  C   C116      1.0  0.98773  0.47261  0.02342  1.0000
  C   C117      1.0  0.46883  0.31811  0.17621  1.0000
  H   H202      1.0  0.27279  0.37219  0.21970  1.0000
  H   H203      1.0  0.27636  0.40878  0.24207  1.0000
  C   C118      1.0  0.13720  0.98210  0.23188  1.0000
  C   C119      1.0  0.21625  0.31055  0.24021  1.0000
  H   H204      1.0  0.44950  0.98893  0.04535  1.0000
  H   H205      1.0  0.41955  0.44114  0.25025  1.0000
  H   H206      1.0  0.38907  0.99095  0.06765  1.0000
  H   H207      1.0  0.27103  0.30481  0.24632  1.0000
  H   H208      1.0  0.41125  0.99156  0.08879  1.0000
  H   H209      1.0  0.24192  0.36408  0.23234  1.0000
  C   C120      1.0  0.26172  0.36780  0.23647  1.0000
  C   C121      1.0  0.40855  0.99280  0.06946  1.0000
  H   H210      1.0  0.45305  0.99922  0.08890  1.0000
  H   H211      1.0  0.41784  0.98915  0.02223  1.0000
  H   H212      1.0  0.19792  0.26826  0.24563  1.0000
  S   S28       1.0  0.31122  0.97945  0.10210  1.0000
  H   H213      1.0  0.47120  0.30523  0.14066  1.0000
  H   H214      1.0  0.99207  0.47732  0.00440  1.0000
  H   H215      1.0  0.42988  0.28495  0.25096  1.0000
  C   C122      1.0  0.25029  0.29894  0.24861  1.0000
  C   C123      1.0  0.26100  0.34431  0.24903  1.0000
  H   H216      1.0  0.28143  0.34860  0.25118  1.0000
  H   H217      1.0  0.35505  0.47933  0.05706  1.0000
  H   H218      1.0  0.15705  0.47878  0.21891  1.0000
  H   H219      1.0  0.45294  0.45568  0.00363  1.0000
  C   C124      1.0  0.44904  0.97996  0.08259  1.0000
  Fe  Fe14      1.0  0.34202  0.33634  0.46400  1.0000
  H   H220      1.0  0.36262  0.44349  0.40742  1.0000
  C   C125      1.0  0.37406  0.99847  0.49665  1.0000
  Fe  Fe15      1.0  0.32332  0.35814  0.42581  1.0000
  S   S29       1.0  0.29270  0.35755  0.44966  1.0000
  S   S30       1.0  0.32939  0.37351  0.38818  1.0000
  Fe  Fe16      1.0  0.32382  0.37402  0.47819  1.0000
  H   H221      1.0  0.44262  0.42406  0.49550  1.0000
  Fe  Fe17      1.0  0.28423  0.31727  0.46002  1.0000
  S   S31       1.0  0.24177  0.28345  0.45825  1.0000
  S   S32       1.0  0.35469  0.37717  0.45340  1.0000
  S   S33       1.0  0.31333  0.31764  0.43448  1.0000
  Fe  Fe18      1.0  0.36378  0.33360  0.26849  1.0000
  S   S34       1.0  0.36969  0.32793  0.30723  1.0000
  Fe  Fe19      1.0  0.11248  0.06233  0.46864  1.0000
  S   S35       1.0  0.08512  0.05910  0.43958  1.0000
  H   H222      1.0  0.39512  0.26325  0.46958  1.0000
  Fe  Fe20      1.0  0.14671  0.12318  0.46143  1.0000
  S   S36       1.0  0.12007  0.12307  0.43329  1.0000
  S   S37       1.0  0.18486  0.15995  0.47209  1.0000
  Fe  Fe21      1.0  0.08752  0.09440  0.45605  1.0000
  H   H223      1.0  0.24247  0.26338  0.36903  1.0000
  Fe  Fe22      1.0  0.12022  0.08802  0.41925  1.0000
  S   S38       1.0  0.12729  0.08608  0.38004  1.0000
  H   H224      1.0  0.21222  0.31394  0.25868  1.0000
  S   S39       1.0  0.14809  0.08859  0.44678  1.0000
  Fe  Fe23      1.0  0.10337  0.14661  0.26750  1.0000
  S   S40       1.0  0.09935  0.14985  0.30702  1.0000
  C   C126      1.0  0.11851  0.10298  0.35965  1.0000
  C   C127      1.0  0.12497  0.10377  0.33565  1.0000
  C   C128      1.0  0.11869  0.11755  0.31918  1.0000
  C   C129      1.0  0.10621  0.13094  0.32668  1.0000
  C   C130      1.0  0.09958  0.12995  0.35059  1.0000
  C   C131      1.0  0.10550  0.11587  0.36697  1.0000
  H   H225      1.0  0.13485  0.09368  0.32978  1.0000
  H   H226      1.0  0.12374  0.11803  0.30075  1.0000
  H   H227      1.0  0.08955  0.13990  0.35640  1.0000
  H   H228      1.0  0.09983  0.11491  0.38522  1.0000
  H   H229      1.0  0.20003  0.19033  0.30902  1.0000
  H   H230      1.0  0.30739  0.41385  0.44981  1.0000
  C   C132      1.0  0.10908  0.17283  0.47220  1.0000
  H   H231      1.0  0.38406  0.03752  0.48715  1.0000
  C   C133      1.0  0.22709  0.24897  0.46061  1.0000
  C   C134      1.0  0.23970  0.23702  0.47119  1.0000
  C   C135      1.0  0.22657  0.20985  0.47425  1.0000
  C   C136      1.0  0.20074  0.19406  0.46656  1.0000
  C   C137      1.0  0.18830  0.20593  0.45549  1.0000
  C   C138      1.0  0.20134  0.23313  0.45263  1.0000
  C   C139      1.0  0.44879  0.32398  0.26420  1.0000
  H   H232      1.0  0.46855  0.32635  0.26389  1.0000
  H   H233      1.0  0.16850  0.19422  0.44952  1.0000
  H   H234      1.0  0.19132  0.24202  0.44434  1.0000
  H   H235      1.0  0.06153  0.98943  0.46655  1.0000
  H   H236      1.0  0.43602  0.33469  0.39302  1.0000
  H   H237      1.0  0.00209  0.01057  0.46449  1.0000
  C   C140      1.0  0.33845  0.35934  0.36517  1.0000
  C   C141      1.0  0.34514  0.37130  0.34289  1.0000
  C   C142      1.0  0.35377  0.36129  0.32465  1.0000
  C   C143      1.0  0.35595  0.33930  0.32861  1.0000
  C   C144      1.0  0.34850  0.32690  0.35061  1.0000
  C   C145      1.0  0.33973  0.33682  0.36879  1.0000
  H   H238      1.0  0.34405  0.38863  0.33981  1.0000
  H   H239      1.0  0.35936  0.37100  0.30774  1.0000
  H   H240      1.0  0.34958  0.30955  0.35358  1.0000
  H   H241      1.0  0.33416  0.32713  0.38566  1.0000
  C   C146      1.0  0.20391  0.13129  0.41229  1.0000
  C   C147      1.0  0.02416  0.46753  0.47220  1.0000
  H   H242      1.0  0.03602  0.47758  0.48819  1.0000
  H   H243      1.0  0.22765  0.41114  0.42621  1.0000
  H   H244      1.0  0.34195  0.41472  0.42396  1.0000
  H   H245      1.0  0.42667  0.32360  0.32754  1.0000
  H   H246      1.0  0.02728  0.00300  0.47051  1.0000
  H   H247      1.0  0.19287  0.10981  0.41226  1.0000
  H   H248      1.0  0.05031  0.39779  0.47948  1.0000
  C   C148      1.0  0.04327  0.10356  0.48668  1.0000
  H   H249      1.0  0.33806  0.23457  0.48560  1.0000
  H   H250      1.0  0.45139  0.40390  0.42100  1.0000
  H   H251      1.0  0.25412  0.34391  0.26739  1.0000
  C   C149      1.0  0.37540  0.45571  0.49981  1.0000
  H   H252      1.0  0.08507  0.18070  0.44825  1.0000
  C   C150      1.0  0.28971  0.43434  0.48341  1.0000
  H   H253      1.0  0.22489  0.29006  0.27989  1.0000
  C   C151      1.0  0.06359  0.98036  0.48231  1.0000
  H   H254      1.0  0.45014  0.34288  0.26030  1.0000
  C   C152      1.0  0.37993  0.25051  0.48230  1.0000
  H   H255      1.0  0.16914  0.18807  0.30294  1.0000
  H   H256      1.0  0.32019  0.43994  0.41344  1.0000
  H   H257      1.0  0.25354  0.39867  0.47319  1.0000
  H   H258      1.0  0.08563  0.15135  0.44184  1.0000
  C   C153      1.0  0.25767  0.44297  0.44688  1.0000
  H   H259      1.0  0.03417  0.43282  0.45008  1.0000
  H   H260      1.0  0.20602  0.13815  0.43088  1.0000
  H   H261      1.0  0.09711  0.19722  0.49086  1.0000
  H   H262      1.0  0.12687  0.17524  0.42085  1.0000
  S   S41       1.0  0.04960  0.09393  0.45949  1.0000
  H   H263      1.0  0.25352  0.25965  0.39787  1.0000
  H   H264      1.0  0.18600  0.13241  0.37987  1.0000
  H   H265      1.0  0.15532  0.20133  0.37502  1.0000
  C   C154      1.0  0.35411  0.24725  0.47350  1.0000
  H   H266      1.0  0.11439  0.16481  0.39133  1.0000
  C   C155      1.0  0.98688  0.31948  0.48343  1.0000
  C   C156      1.0  0.00325  0.05231  0.41790  1.0000
  N   N7        1.0  0.19225  0.18419  0.38280  1.0000
  H   H267      1.0  0.12050  0.19580  0.40200  1.0000
  H   H268      1.0  0.45480  0.34944  0.34183  1.0000
  H   H269      1.0  0.45107  0.39401  0.46388  1.0000
  H   H270      1.0  0.01745  0.04554  0.42041  1.0000
  H   H271      1.0  0.06708  0.15242  0.46639  1.0000
  H   H272      1.0  0.09982  0.47188  0.48728  1.0000
  H   H273      1.0  0.18830  0.26947  0.47729  1.0000
  H   H274      1.0  0.03540  0.03620  0.46552  1.0000
  C   C157      1.0  0.98444  0.42544  0.46268  1.0000
  H   H275      1.0  0.36461  0.99024  0.47996  1.0000
  C   C158      1.0  0.16608  0.17541  0.39409  1.0000
  C   C159      1.0  0.24494  0.29476  0.27552  1.0000
  C   C160      1.0  0.01486  0.39777  0.46940  1.0000
  H   H276      1.0  0.24801  0.43416  0.46384  1.0000
  S   S42       1.0  0.14094  0.15316  0.25248  1.0000
  H   H277      1.0  0.99788  0.31600  0.46945  1.0000
  C   C161      1.0  0.23678  0.43250  0.42762  1.0000
  H   H278      1.0  0.09261  0.05252  0.27651  1.0000
  C   C162      1.0  0.25223  0.25444  0.37882  1.0000
  H   H279      1.0  0.12405  0.05599  0.27038  1.0000
  H   H280      1.0  0.37831  0.23117  0.48190  1.0000
  C   C163      1.0  0.02718  0.42758  0.46848  1.0000
  C   C164      1.0  0.08526  0.16381  0.45626  1.0000
  H   H281      1.0  0.42573  0.34086  0.48042  1.0000
  H   H282      1.0  0.22144  0.43726  0.43207  1.0000
  S   S43       1.0  0.11379  0.09722  0.48577  1.0000
  H   H283      1.0  0.23706  0.22089  0.35649  1.0000
  H   H284      1.0  0.46838  0.38669  0.41453  1.0000
  H   H285      1.0  0.38022  0.44775  0.48475  1.0000
  S   S44       1.0  0.32479  0.32685  0.25735  1.0000
  H   H286      1.0  0.16722  0.21147  0.40454  1.0000
  H   H287      1.0  0.10936  0.04497  0.29896  1.0000
  H   H288      1.0  0.26360  0.38935  0.26832  1.0000
  H   H289      1.0  0.17020  0.15975  0.31208  1.0000
  N   N8        1.0  0.01003  0.43844  0.47566  1.0000
  H   H290      1.0  0.23375  0.25399  0.27640  1.0000
  H   H291      1.0  0.41442  0.35083  0.35011  1.0000
  C   C165      1.0  0.23743  0.22504  0.37565  1.0000
  H   H292      1.0  0.17442  0.28015  0.50006  1.0000
  H   H293      1.0  0.16678  0.17155  0.41328  1.0000
  C   C166      1.0  0.45379  0.38732  0.42628  1.0000
  C   C167      1.0  0.98579  0.42719  0.43542  1.0000
  H   H294      1.0  0.24872  0.21757  0.38508  1.0000
  H   H295      1.0  0.04512  0.43647  0.47953  1.0000
  H   H296      1.0  0.99254  0.44738  0.42980  1.0000
  C   C168      1.0  0.10533  0.04408  0.27969  1.0000
  H   H297      1.0  0.34963  0.23821  0.45568  1.0000
  S   S45       1.0  0.31262  0.33351  0.49063  1.0000
  H   H298      1.0  0.01416  0.07380  0.41747  1.0000
  H   H299      1.0  0.34520  0.46757  0.42898  1.0000
  H   H300      1.0  0.00996  0.47439  0.47027  1.0000
  C   C169      1.0  0.20951  0.21310  0.38563  1.0000
  H   H301      1.0  0.17018  0.13468  0.40608  1.0000
  H   H302      1.0  0.15636  0.17930  0.34416  1.0000
  H   H303      1.0  0.36738  0.44282  0.43889  1.0000
  H   H304      1.0  0.18727  0.20892  0.34173  1.0000
  C   C170      1.0  0.31519  0.47434  0.46101  1.0000
  C   C171      1.0  0.31853  0.43518  0.45211  1.0000
  H   H305      1.0  0.35514  0.26635  0.47225  1.0000
  H   H306      1.0  0.99895  0.42080  0.42808  1.0000
  H   H307      1.0  0.27226  0.26260  0.37186  1.0000
  C   C172      1.0  0.24854  0.27256  0.28444  1.0000
  H   H308      1.0  0.43393  0.28325  0.48598  1.0000
  H   H309      1.0  0.30563  0.43849  0.49610  1.0000
  H   H310      1.0  0.15119  0.15656  0.38642  1.0000
  C   C173      1.0  0.18930  0.14147  0.39761  1.0000
  H   H311      1.0  0.44069  0.31792  0.28225  1.0000
  H   H312      1.0  0.97298  0.40466  0.46778  1.0000
  C   C174      1.0  0.01826  0.02098  0.49988  1.0000
  H   H313      1.0  0.22372  0.17599  0.38734  1.0000
  H   H314      1.0  0.25875  0.31244  0.28543  1.0000
  H   H315      1.0  0.26554  0.46417  0.44804  1.0000
  H   H316      1.0  0.00932  0.10366  0.47361  1.0000
  H   H317      1.0  0.44940  0.36605  0.38102  1.0000
  H   H318      1.0  0.12616  0.18624  0.46172  1.0000
  C   C175      1.0  0.38510  0.02541  0.50084  1.0000
  H   H319      1.0  0.99487  0.04892  0.45494  1.0000
  H   H320      1.0  0.04512  0.39733  0.44785  1.0000
  H   H321      1.0  0.24619  0.27096  0.30395  1.0000
  H   H322      1.0  0.27967  0.44419  0.49105  1.0000
  H   H323      1.0  0.26825  0.27603  0.28004  1.0000
  C   C176      1.0  0.33370  0.44616  0.42875  1.0000
  C   C177      1.0  0.18907  0.17573  0.35726  1.0000
  C   C178      1.0  0.17939  0.18100  0.31455  1.0000
  N   N9        1.0  0.41445  0.35421  0.40124  1.0000
  C   C179      1.0  0.41166  0.37596  0.39075  1.0000
  C   C180      1.0  0.43060  0.34822  0.38463  1.0000
  C   C181      1.0  0.38776  0.33108  0.40444  1.0000
  C   C182      1.0  0.42764  0.36147  0.42509  1.0000
  C   C183      1.0  0.35258  0.43618  0.42459  1.0000
  C   C184      1.0  0.39779  0.38666  0.40642  1.0000
  C   C185      1.0  0.38665  0.30561  0.41220  1.0000
  C   C186      1.0  0.41816  0.33700  0.36009  1.0000
  H   H324      1.0  0.99325  0.04489  0.40067  1.0000
  C   C187      1.0  0.39889  0.41045  0.39513  1.0000
  C   C188      1.0  0.35854  0.28356  0.41369  1.0000
  H   H325      1.0  0.40012  0.36954  0.37408  1.0000
  H   H326      1.0  0.43091  0.39229  0.38544  1.0000
  H   H327      1.0  0.43977  0.31688  0.35364  1.0000
  H   H328      1.0  0.15323  0.22048  0.47881  1.0000
  H   H329      1.0  0.37637  0.32705  0.38796  1.0000
  H   H330      1.0  0.37664  0.33527  0.41782  1.0000
  H   H331      1.0  0.41449  0.36222  0.43865  1.0000
  H   H332      1.0  0.43167  0.34618  0.43145  1.0000
  H   H333      1.0  0.97227  0.43386  0.46806  1.0000
  H   H334      1.0  0.00584  0.38973  0.48662  1.0000
  H   H335      1.0  0.37704  0.37181  0.40844  1.0000
  H   H336      1.0  0.40668  0.39242  0.42422  1.0000
  H   H337      1.0  0.39562  0.30780  0.42990  1.0000
  H   H338      1.0  0.39680  0.29960  0.39948  1.0000
  H   H339      1.0  0.39952  0.31861  0.36182  1.0000
  H   H340      1.0  0.11111  0.15574  0.47655  1.0000
  H   H341      1.0  0.23648  0.20102  0.48288  1.0000
  S   S46       1.0  0.10563  0.02931  0.49463  1.0000
  H   H342      1.0  0.07467  0.00476  0.28206  1.0000
  H   H343      1.0  0.38998  0.40574  0.37721  1.0000
  H   H344      1.0  0.38782  0.41700  0.40617  1.0000
  H   H345      1.0  0.41927  0.42648  0.39381  1.0000
  H   H346      1.0  0.34867  0.28042  0.39629  1.0000
  H   H347      1.0  0.35815  0.26543  0.41887  1.0000
  H   H348      1.0  0.34769  0.28797  0.42714  1.0000
  H   H349      1.0  0.28061  0.39390  0.47889  1.0000
  H   H350      1.0  0.13728  0.23569  0.49187  1.0000
  H   H351      1.0  0.33275  0.43853  0.46636  1.0000
  C   C189      1.0  0.27085  0.40469  0.48456  1.0000
  C   C190      1.0  0.17734  0.18758  0.34031  1.0000
  N   N10       1.0  0.30074  0.44519  0.45937  1.0000
  C   C191      1.0  0.09227  0.01601  0.27112  1.0000
  H   H352      1.0  0.22341  0.13770  0.40474  1.0000
  H   H353      1.0  0.46850  0.37704  0.45746  1.0000
  H   H354      1.0  0.97763  0.07481  0.44006  1.0000
  H   H355      1.0  0.20082  0.22377  0.37717  1.0000
  C   C192      1.0  0.02102  0.01748  0.47350  1.0000
  H   H356      1.0  0.41769  0.24015  0.49718  1.0000
  H   H357      1.0  0.16442  0.28046  0.25440  1.0000
  C   C193      1.0  0.19435  0.14163  0.26040  1.0000
  H   H358      1.0  0.27060  0.41578  0.43730  1.0000
  H   H359      1.0  0.21127  0.21831  0.40477  1.0000
  C   C194      1.0  0.20511  0.17145  0.39589  1.0000
  C   C195      1.0  0.15528  0.19436  0.39313  1.0000
  H   H360      1.0  0.17588  0.15446  0.35583  1.0000
  H   H361      1.0  0.29489  0.39654  0.25684  1.0000
  H   H362      1.0  0.45529  0.00548  0.47768  1.0000
  S   S47       1.0  0.37310  0.32568  0.46856  1.0000
  H   H363      1.0  0.25940  0.24876  0.47756  1.0000
  C   C196      1.0  0.02169  0.10692  0.48877  1.0000
  C   C197      1.0  0.43606  0.33143  0.34495  1.0000
  H   H364      1.0  0.24523  0.44135  0.41025  1.0000
  C   C198      1.0  0.27495  0.39204  0.25194  1.0000
  C   C199      1.0  0.03545  0.38998  0.46517  1.0000
  H   H365      1.0  0.06121  0.47720  0.45549  1.0000
  C   C200      1.0  0.12753  0.18170  0.40240  1.0000
  H   H366      1.0  0.21005  0.17918  0.41433  1.0000
  H   H367      1.0  0.20789  0.17920  0.34992  1.0000
  C   C201      1.0  0.98368  0.04251  0.43817  1.0000
  H   H368      1.0  0.02633  0.36861  0.46515  1.0000
  H   H369      1.0  0.15135  0.18225  0.49726  1.0000
  C   C202      1.0  0.41716  0.34520  0.49531  1.0000
  H   H370      1.0  0.28790  0.44649  0.42387  1.0000
  C   C203      1.0  0.08359  0.99516  0.49839  1.0000
  H   H371      1.0  0.99971  0.38847  0.45551  1.0000
  H   H372      1.0  0.19752  0.16119  0.26465  1.0000
  C   C204      1.0  0.27957  0.43687  0.44105  1.0000
  C   C205      1.0  0.46479  0.39264  0.45144  1.0000
  H   H373      1.0  0.10591  0.00881  0.27462  1.0000
  H   H374      1.0  0.32103  0.98015  0.26960  1.0000
  C   C206      1.0  0.18636  0.27092  0.49667  1.0000
  H   H375      1.0  0.00010  0.32873  0.49870  1.0000
  C   C207      1.0  0.14782  0.22507  0.49612  1.0000
  H   H376      1.0  0.03543  0.46889  0.43455  1.0000
  H   H377      1.0  0.21133  0.14013  0.26650  1.0000
  H   H378      1.0  0.45056  0.45708  0.50094  1.0000
  C   C208      1.0  0.10603  0.18514  0.49529  1.0000
  H   H379      1.0  0.98053  0.33283  0.47641  1.0000
  C   C209      1.0  0.47100  0.00336  0.48635  1.0000
  C   C210      1.0  0.39147  0.33998  0.49399  1.0000
  H   H380      1.0  0.97313  0.02113  0.43724  1.0000
  H   H381      1.0  0.17687  0.12714  0.27011  1.0000
  C   C211      1.0  0.04381  0.47894  0.45149  1.0000
  H   H382      1.0  0.41706  0.43115  0.50135  1.0000
  Fe  Fe24      1.0  0.01359  0.34468  0.55596  1.0000
  H   H383      1.0  0.45000  0.44946  0.62110  1.0000
  S   S48       1.0  0.01192  0.30792  0.54092  1.0000
  Fe  Fe25      1.0  0.03888  0.40548  0.54973  1.0000
  S   S49       1.0  0.01372  0.40722  0.57869  1.0000
  S   S50       1.0  0.06698  0.43952  0.52511  1.0000
  Fe  Fe26      1.0  0.02130  0.37894  0.59873  1.0000
  S   S51       1.0  0.02967  0.38058  0.63813  1.0000
  S   S52       1.0  0.33052  0.40653  0.50508  1.0000
  C   C212      1.0  0.41530  0.24405  0.51599  1.0000
  S   S53       1.0  0.04911  0.37946  0.57118  1.0000
  S   S54       1.0  0.00559  0.37039  0.53220  1.0000
  S   S55       1.0  0.02055  0.13318  0.71161  1.0000
  Fe  Fe27      1.0  0.43417  0.10411  0.55388  1.0000
  H   H384      1.0  0.38600  0.35972  0.54893  1.0000
  S   S56       1.0  0.40908  0.07087  0.52739  1.0000
  H   H385      1.0  0.02351  0.00181  0.56868  1.0000
  C   C213      1.0  0.07878  0.47315  0.51776  1.0000
  S   S57       1.0  0.44658  0.19711  0.56959  1.0000
  Fe  Fe28      1.0  0.98760  0.12550  0.55886  1.0000
  S   S58       1.0  0.02848  0.13309  0.55573  1.0000
  H   H386      1.0  0.02012  0.32281  0.71933  1.0000
  S   S59       1.0  0.43824  0.11011  0.64378  1.0000
  H   H387      1.0  0.98691  0.17251  0.63239  1.0000
  S   S60       1.0  0.42073  0.12335  0.58059  1.0000
  S   S61       1.0  0.44220  0.33936  0.71954  1.0000
  C   C214      1.0  0.03358  0.12114  0.52930  1.0000
  H   H388      1.0  0.99292  0.34920  0.71658  1.0000
  C   C215      1.0  0.36353  0.47717  0.53875  1.0000
  Fe  Fe29      1.0  0.98148  0.37124  0.56210  1.0000
  H   H389      1.0  0.42553  0.41643  0.61501  1.0000
  H   H390      1.0  0.01789  0.03402  0.58245  1.0000
  H   H391      1.0  0.39782  0.99508  0.59545  1.0000
  H   H392      1.0  0.07360  0.18897  0.57448  1.0000
  C   C216      1.0  0.98155  0.26674  0.57148  1.0000
  H   H393      1.0  0.10850  0.45593  0.65312  1.0000
  C   C217      1.0  0.38048  0.98399  0.60673  1.0000
  H   H394      1.0  0.38526  0.40556  0.53896  1.0000
  C   C218      1.0  0.41242  0.27404  0.54374  1.0000
  H   H395      1.0  0.43497  0.10295  0.69408  1.0000
  H   H396      1.0  0.05439  0.16492  0.61084  1.0000
  H   H397      1.0  0.04345  0.38507  0.73337  1.0000
  H   H398      1.0  0.99303  0.19845  0.69420  1.0000
  C   C219      1.0  0.38681  0.05179  0.68654  1.0000
  C   C220      1.0  0.39700  0.03678  0.52262  1.0000
  H   H399      1.0  0.04880  0.06765  0.53961  1.0000
  C   C221      1.0  0.41213  0.30362  0.57580  1.0000
  H   H400      1.0  0.27786  0.40103  0.52186  1.0000
  H   H401      1.0  0.41831  0.45260  0.53866  1.0000
  C   C222      1.0  0.99654  0.27509  0.55088  1.0000
  C   C223      1.0  0.39712  0.04230  0.66643  1.0000
  H   H402      1.0  0.45979  0.43655  0.53581  1.0000
  C   C224      1.0  0.45915  0.35310  0.67382  1.0000
  H   H403      1.0  0.42000  0.45716  0.60549  1.0000
  C   C225      1.0  0.99903  0.25665  0.53726  1.0000
  C   C226      1.0  0.03531  0.04851  0.54755  1.0000
  H   H404      1.0  0.43911  0.23999  0.58121  1.0000
  H   H405      1.0  0.39400  0.22070  0.54681  1.0000
  H   H406      1.0  0.98382  0.27727  0.64486  1.0000
  H   H407      1.0  0.03713  0.23570  0.66153  1.0000
  H   H408      1.0  0.04705  0.44260  0.68227  1.0000
  H   H409      1.0  0.42480  0.24602  0.74025  1.0000
  H   H410      1.0  0.01586  0.04346  0.54055  1.0000
  C   C227      1.0  0.12957  0.16083  0.52815  1.0000
  C   C228      1.0  0.46556  0.21928  0.73772  1.0000
  N   N11       1.0  0.04241  0.02860  0.53997  1.0000
  C   C229      1.0  0.08783  0.44492  0.65857  1.0000
  H   H411      1.0  0.07677  0.45210  0.64826  1.0000
  H   H412      1.0  0.12543  0.22862  0.53135  1.0000
  H   H413      1.0  0.12167  0.05275  0.54558  1.0000
  H   H414      1.0  0.08881  0.44173  0.73304  1.0000
  C   C230      1.0  0.00347  0.36555  0.65819  1.0000
  H   H415      1.0  0.10125  0.99368  0.53126  1.0000
  H   H416      1.0  0.99897  0.46649  0.51061  1.0000
  H   H417      1.0  0.33004  0.43896  0.54268  1.0000
  Fe  Fe30      1.0  0.45390  0.16237  0.56921  1.0000
  H   H418      1.0  0.09502  0.46938  0.68876  1.0000
  H   H419      1.0  0.02792  0.36626  0.68666  1.0000
  H   H420      1.0  0.46719  0.45594  0.58080  1.0000
  H   H421      1.0  0.46249  0.41920  0.63760  1.0000
  H   H422      1.0  0.39183  0.99921  0.64228  1.0000
  H   H423      1.0  0.07635  0.10603  0.50452  1.0000
  H   H424      1.0  0.33931  0.38366  0.54882  1.0000
  N   N12       1.0  0.42647  0.44191  0.57301  1.0000
  C   C231      1.0  0.05685  0.43432  0.69303  1.0000
  C   C232      1.0  0.43181  0.35615  0.51590  1.0000
  H   H425      1.0  0.46852  0.05933  0.60379  1.0000
  S   S62       1.0  0.98688  0.34326  0.58449  1.0000
  H   H426      1.0  0.09678  0.44054  0.69428  1.0000
  H   H427      1.0  0.02166  0.12477  0.66188  1.0000
  H   H428      1.0  0.44651  0.17667  0.65483  1.0000
  N   N13       1.0  0.41182  0.26739  0.51795  1.0000
  C   C233      1.0  0.00848  0.36150  0.68160  1.0000
  H   H429      1.0  0.43322  0.01820  0.62027  1.0000
  H   H430      1.0  0.42964  0.27518  0.55258  1.0000
  C   C234      1.0  0.46255  0.11808  0.66555  1.0000
  H   H431      1.0  0.04275  0.99304  0.74336  1.0000
  H   H432      1.0  0.45119  0.47014  0.54713  1.0000
  C   C235      1.0  0.38621  0.26219  0.50758  1.0000
  C   C236      1.0  0.45525  0.11227  0.68934  1.0000
  H   H433      1.0  0.07497  0.02189  0.54153  1.0000
  H   H434      1.0  0.40744  0.02884  0.55661  1.0000
  C   C237      1.0  0.44193  0.22242  0.73099  1.0000
  H   H435      1.0  0.16273  0.19849  0.52457  1.0000
  H   H436      1.0  0.99288  0.41217  0.50540  1.0000
  H   H437      1.0  0.08025  0.42419  0.65426  1.0000
  H   H438      1.0  0.00005  0.11814  0.51164  1.0000
  C   C238      1.0  0.00171  0.11824  0.66657  1.0000
  C   C239      1.0  0.06110  0.46404  0.72497  1.0000
  H   H439      1.0  0.12493  0.16461  0.54616  1.0000
  Fe  Fe31      1.0  0.44975  0.12238  0.60566  1.0000
  H   H440      1.0  0.00409  0.22680  0.66244  1.0000
  S   S63       1.0  0.46084  0.10079  0.58001  1.0000
  N   N14       1.0  0.38854  0.02836  0.62202  1.0000
  H   H441      1.0  0.44524  0.15463  0.72912  1.0000
  C   C240      1.0  0.38292  0.04059  0.64293  1.0000
  C   C241      1.0  0.37187  0.02829  0.60171  1.0000
  C   C242      1.0  0.41680  0.04374  0.61505  1.0000
  H   H442      1.0  0.43309  0.03443  0.64667  1.0000
  H   H443      1.0  0.45610  0.26400  0.65156  1.0000
  C   C243      1.0  0.37758  0.05513  0.59246  1.0000
  H   H444      1.0  0.97684  0.29837  0.67947  1.0000
  H   H445      1.0  0.00169  0.27879  0.70262  1.0000
  C   C244      1.0  0.04392  0.02874  0.51333  1.0000
  H   H446      1.0  0.16365  0.15994  0.54140  1.0000
  C   C245      1.0  0.35952  0.05214  0.57190  1.0000
  H   H447      1.0  0.34632  0.39338  0.57933  1.0000
  C   C246      1.0  0.98930  0.44532  0.51352  1.0000
  H   H448      1.0  0.38841  0.06092  0.63900  1.0000
  H   H449      1.0  0.38899  0.07094  0.68214  1.0000
  H   H450      1.0  0.35091  0.01699  0.60649  1.0000
  H   H451      1.0  0.37420  0.01848  0.58599  1.0000
  H   H452      1.0  0.41913  0.04191  0.59577  1.0000
  H   H453      1.0  0.42408  0.06470  0.61784  1.0000
  C   C247      1.0  0.26125  0.39620  0.50980  1.0000
  H   H454      1.0  0.06707  0.03003  0.56910  1.0000
  H   H455      1.0  0.46803  0.07641  0.63015  1.0000
  H   H456      1.0  0.38676  0.98129  0.54996  1.0000
  H   H457      1.0  0.39785  0.06633  0.58600  1.0000
  H   H458      1.0  0.37459  0.06660  0.60621  1.0000
  C   C248      1.0  0.06846  0.03459  0.54989  1.0000
  H   H459      1.0  0.13418  0.12896  0.54066  1.0000
  H   H460      1.0  0.44981  0.02730  0.51885  1.0000
  C   C249      1.0  0.06349  0.40023  0.72875  1.0000
  C   C250      1.0  0.42574  0.46320  0.58685  1.0000
  H   H461      1.0  0.08269  0.47575  0.72477  1.0000
  C   C251      1.0  0.99536  0.11940  0.69027  1.0000
  H   H462      1.0  0.03240  0.17451  0.66942  1.0000
  C   C252      1.0  0.43338  0.28937  0.50444  1.0000
  H   H463      1.0  0.38655  0.45653  0.57960  1.0000
  H   H464      1.0  0.33905  0.04265  0.57793  1.0000
  H   H465      1.0  0.36494  0.07150  0.56470  1.0000
  H   H466      1.0  0.36118  0.04047  0.55741  1.0000
  C   C253      1.0  0.46778  0.06720  0.52859  1.0000
  H   H467      1.0  0.45882  0.26069  0.74749  1.0000
  H   H468      1.0  0.36164  0.03025  0.64651  1.0000
  H   H469      1.0  0.01578  0.30966  0.74885  1.0000
  H   H470      1.0  0.40983  0.32067  0.57932  1.0000
  C   C254      1.0  0.03400  0.05186  0.57462  1.0000
  H   H471      1.0  0.05472  0.47296  0.71114  1.0000
  H   H472      1.0  0.00194  0.21069  0.61791  1.0000
  H   H473      1.0  0.97688  0.41992  0.54422  1.0000
  C   C255      1.0  0.09634  0.19178  0.54367  1.0000
  H   H474      1.0  0.41112  0.47898  0.55938  1.0000
  H   H475      1.0  0.17191  0.24675  0.52728  1.0000
  H   H476      1.0  0.41810  0.05659  0.66471  1.0000
  C   C256      1.0  0.37413  0.98211  0.51440  1.0000
  H   H477      1.0  0.42334  0.20396  0.73239  1.0000
  H   H478      1.0  0.03976  0.23086  0.70004  1.0000
  C   C257      1.0  0.40101  0.41671  0.57510  1.0000
  H   H479      1.0  0.00156  0.25072  0.62756  1.0000
  H   H480      1.0  0.05149  0.01605  0.50725  1.0000
  C   C258      1.0  0.43372  0.45046  0.54771  1.0000
  C   C259      1.0  0.46413  0.05742  0.62300  1.0000
  C   C260      1.0  0.38000  0.00054  0.62777  1.0000
  C   C261      1.0  0.39487  0.35606  0.53388  1.0000
  H   H481      1.0  0.39802  0.05393  0.70296  1.0000
  C   C262      1.0  0.06765  0.42759  0.73411  1.0000
  H   H482      1.0  0.46641  0.28782  0.57619  1.0000
  C   C263      1.0  0.42048  0.36115  0.53535  1.0000
  C   C264      1.0  0.43971  0.43254  0.53226  1.0000
  H   H483      1.0  0.09161  0.17140  0.54535  1.0000
  C   C265      1.0  0.09386  0.20111  0.56817  1.0000
  H   H484      1.0  0.04782  0.20545  0.70014  1.0000
  Fe  Fe32      1.0  0.01079  0.13214  0.75062  1.0000
  S   S64       1.0  0.97965  0.14454  0.58920  1.0000
  H   H485      1.0  0.04755  0.41380  0.68721  1.0000
  H   H486      1.0  0.39611  0.19207  0.50236  1.0000
  H   H487      1.0  0.00696  0.45005  0.54836  1.0000
  S   S65       1.0  0.46478  0.14341  0.54005  1.0000
  N   N15       1.0  0.46588  0.19643  0.72664  1.0000
  H   H488      1.0  0.02191  0.25502  0.60255  1.0000
  H   H489      1.0  0.44397  0.22942  0.71250  1.0000
  H   H490      1.0  0.98070  0.15455  0.65860  1.0000
  H   H491      1.0  0.00190  0.00260  0.50648  1.0000
  C   C266      1.0  0.39805  0.02057  0.53999  1.0000
  H   H492      1.0  0.35511  0.37078  0.56693  1.0000
  C   C267      1.0  0.99724  0.28071  0.72125  1.0000
  C   C268      1.0  0.43591  0.03673  0.62736  1.0000
  C   C269      1.0  0.02211  0.00246  0.54909  1.0000
  H   H493      1.0  0.03693  0.22748  0.62023  1.0000
  C   C270      1.0  0.97809  0.35862  0.65165  1.0000
  C   C271      1.0  0.42544  0.28046  0.62943  1.0000
  H   H494      1.0  0.05825  0.04831  0.50675  1.0000
  C   C272      1.0  0.02634  0.20591  0.73018  1.0000
  H   H495      1.0  0.35977  0.99061  0.63473  1.0000
  H   H496      1.0  0.02627  0.07492  0.59958  1.0000
  H   H497      1.0  0.42962  0.30578  0.50278  1.0000
  H   H498      1.0  0.99781  0.26547  0.73206  1.0000
  C   C273      1.0  0.44540  0.43199  0.61051  1.0000
  H   H499      1.0  0.09098  0.16844  0.50533  1.0000
  N   N16       1.0  0.13028  0.20085  0.50993  1.0000
  H   H500      1.0  0.05232  0.05611  0.58357  1.0000
  H   H501      1.0  0.20608  0.28348  0.50415  1.0000
  C   C274      1.0  0.45215  0.29669  0.64084  1.0000
  H   H502      1.0  0.13249  0.08594  0.55291  1.0000
  H   H503      1.0  0.11543  0.06109  0.57471  1.0000
  H   H504      1.0  0.36981  0.24928  0.51933  1.0000
  H   H505      1.0  0.44901  0.42249  0.57456  1.0000
  H   H506      1.0  0.40433  0.39988  0.57458  1.0000
  C   C275      1.0  0.46740  0.28184  0.64080  1.0000
  C   C276      1.0  0.05644  0.17544  0.62765  1.0000
  C   C277      1.0  0.98730  0.44094  0.54021  1.0000
  H   H507      1.0  0.97790  0.41819  0.73890  1.0000
  C   C278      1.0  0.14569  0.14752  0.53112  1.0000
  H   H508      1.0  0.39582  0.28659  0.58447  1.0000
  H   H509      1.0  0.46283  0.31514  0.63099  1.0000
  H   H510      1.0  0.39464  0.02338  0.67188  1.0000
  H   H511      1.0  0.41351  0.26263  0.63989  1.0000
  H   H512      1.0  0.41528  0.29183  0.62893  1.0000
  H   H513      1.0  0.42730  0.27491  0.61110  1.0000
  H   H514      1.0  0.06829  0.12222  0.54199  1.0000
  H   H515      1.0  0.01101  0.07115  0.57116  1.0000
  H   H516      1.0  0.05948  0.16469  0.64218  1.0000
  C   C279      1.0  0.03223  0.21008  0.70375  1.0000
  H   H517      1.0  0.00380  0.41905  0.69159  1.0000
  H   H518      1.0  0.09828  0.22152  0.56750  1.0000
  H   H519      1.0  0.24806  0.37492  0.51021  1.0000
  C   C280      1.0  0.98860  0.35165  0.69856  1.0000
  H   H520      1.0  0.39540  0.25830  0.55302  1.0000
  C   C281      1.0  0.46682  0.18202  0.65921  1.0000
  H   H521      1.0  0.08739  0.07668  0.55653  1.0000
  N   N17       1.0  0.05233  0.43617  0.71903  1.0000
  H   H522      1.0  0.43900  0.34081  0.66894  1.0000
  H   H523      1.0  0.07838  0.37516  0.73938  1.0000
  C   C282      1.0  0.02887  0.07400  0.58023  1.0000
  H   H524      1.0  0.03795  0.30722  0.72882  1.0000
  C   C283      1.0  0.44788  0.43837  0.58366  1.0000
  H   H525      1.0  0.05172  0.20654  0.65872  1.0000
  H   H526      1.0  0.45516  0.15903  0.69063  1.0000
  C   C284      1.0  0.34727  0.45085  0.53237  1.0000
  H   H527      1.0  0.42482  0.16766  0.72389  1.0000
  C   C285      1.0  0.11666  0.06571  0.55558  1.0000
  C   C286      1.0  0.17407  0.24422  0.50816  1.0000
  H   H528      1.0  0.03662  0.26799  0.63091  1.0000
  H   H529      1.0  0.10713  0.19935  0.58093  1.0000
  H   H530      1.0  0.01770  0.39859  0.71960  1.0000
  C   C287      1.0  0.05517  0.11780  0.52720  1.0000
  H   H531      1.0  0.37726  0.42764  0.55249  1.0000
  C   C288      1.0  0.39367  0.21876  0.52727  1.0000
  C   C289      1.0  0.08591  0.98265  0.51865  1.0000
  H   H532      1.0  0.97395  0.36159  0.63365  1.0000
  H   H533      1.0  0.13834  0.21190  0.54700  1.0000
  C   C290      1.0  0.46743  0.23134  0.56666  1.0000
  C   C291      1.0  0.00519  0.42533  0.71032  1.0000
  H   H534      1.0  0.07365  0.19513  0.62638  1.0000
  C   C292      1.0  0.08565  0.44834  0.68509  1.0000
  H   H535      1.0  0.06696  0.39799  0.70989  1.0000
  H   H536      1.0  0.46665  0.28505  0.51608  1.0000
  H   H537      1.0  0.02983  0.18811  0.61726  1.0000
  H   H538      1.0  0.01057  0.26279  0.52131  1.0000
  S   S66       1.0  0.43744  0.37330  0.56192  1.0000
  C   C293      1.0  0.46560  0.19886  0.70012  1.0000
  H   H539      1.0  0.41726  0.20007  0.52783  1.0000
  H   H540      1.0  0.02002  0.41834  0.74349  1.0000
  C   C294      1.0  0.08212  0.39499  0.74324  1.0000
  H   H541      1.0  0.42635  0.41192  0.53630  1.0000
  H   H542      1.0  0.04620  0.03696  0.73522  1.0000
  N   N18       1.0  0.01084  0.19435  0.66231  1.0000
  H   H543      1.0  0.39216  0.41545  0.59274  1.0000
  C   C295      1.0  0.03245  0.18874  0.65655  1.0000
  C   C296      1.0  0.00748  0.19283  0.68887  1.0000
  C   C297      1.0  0.01773  0.22123  0.65452  1.0000
  C   C298      1.0  0.01894  0.22604  0.62749  1.0000
  H   H544      1.0  0.45161  0.36021  0.51686  1.0000
  H   H545      1.0  0.04554  0.09278  0.57465  1.0000
  C   C299      1.0  0.03189  0.17702  0.63190  1.0000
  H   H546      1.0  0.01530  0.15703  0.63083  1.0000
  C   C300      1.0  0.01985  0.25155  0.62194  1.0000
  H   H547      1.0  0.44663  0.19645  0.69420  1.0000
  H   H548      1.0  0.46657  0.27515  0.62229  1.0000
  H   H549      1.0  0.04325  0.98152  0.54210  1.0000
  H   H550      1.0  0.02282  0.44032  0.51177  1.0000
  H   H551      1.0  0.98844  0.21642  0.53292  1.0000
  C   C301      1.0  0.01907  0.30675  0.73011  1.0000
  H   H552      1.0  0.36062  0.34167  0.51224  1.0000
  H   H553      1.0  0.09361  0.06818  0.52779  1.0000
  C   C302      1.0  0.09100  0.06272  0.54664  1.0000
  H   H554      1.0  0.42942  0.31633  0.54185  1.0000
  C   C303      1.0  0.41206  0.29934  0.54918  1.0000
  C   C304      1.0  0.98546  0.17390  0.65175  1.0000
  C   C305      1.0  0.46632  0.35614  0.69781  1.0000
  H   H555      1.0  0.37410  0.21373  0.52075  1.0000
  C   C306      1.0  0.46123  0.30028  0.51454  1.0000
  C   C307      1.0  0.37991  0.41091  0.55598  1.0000
  C   C308      1.0  0.38641  0.99354  0.53606  1.0000
  C   C309      1.0  0.12384  0.20925  0.53314  1.0000
  C   C310      1.0  0.46988  0.04366  0.52140  1.0000
  H   H556      1.0  0.39447  0.29874  0.54177  1.0000
  H   H557      1.0  0.43086  0.30741  0.58358  1.0000
  H   H558      1.0  0.43360  0.24782  0.52486  1.0000
  H   H559      1.0  0.99966  0.17246  0.69496  1.0000
  H   H560      1.0  0.11142  0.14728  0.51884  1.0000
  C   C311      1.0  0.35362  0.38829  0.56332  1.0000
  H   H561      1.0  0.04412  0.21861  0.74057  1.0000
  H   H562      1.0  0.00220  0.99905  0.54566  1.0000
  H   H563      1.0  0.36602  0.03776  0.68995  1.0000
  C   C312      1.0  0.35287  0.43981  0.51278  1.0000
  C   C313      1.0  0.38047  0.34579  0.51313  1.0000
  H   H564      1.0  0.45985  0.07356  0.51387  1.0000
  H   H565      1.0  0.38544  0.28045  0.50664  1.0000
  C   C314      1.0  0.97788  0.41121  0.72068  1.0000
  H   H566      1.0  0.01178  0.44627  0.71051  1.0000
  H   H567      1.0  0.98623  0.05676  0.51520  1.0000
  C   C315      1.0  0.44244  0.17121  0.73391  1.0000
  H   H568      1.0  0.08139  0.19228  0.53217  1.0000
  C   C316      1.0  0.02386  0.41891  0.72416  1.0000
  C   C317      1.0  0.98658  0.23028  0.54386  1.0000
  C   C318      1.0  0.43737  0.43659  0.50589  1.0000
  C   C319      1.0  0.05983  0.10873  0.50598  1.0000
  H   H569      1.0  0.45979  0.40475  0.60908  1.0000
  H   H570      1.0  0.25045  0.40575  0.51623  1.0000
  H   H571      1.0  0.01105  0.21055  0.73517  1.0000
  H   H572      1.0  0.01987  0.18555  0.73504  1.0000
  C   C320      1.0  0.44010  0.24213  0.74693  1.0000
  C   C321      1.0  0.46429  0.42300  0.61827  1.0000
  H   H573      1.0  0.38293  0.17837  0.53087  1.0000
  C   C322      1.0  0.45824  0.24810  0.57353  1.0000
  H   H574      1.0  0.44866  0.30090  0.65915  1.0000
  H   H575      1.0  0.10258  0.40898  0.73861  1.0000
  H   H576      1.0  0.46315  0.30906  0.53225  1.0000
  C   C323      1.0  0.14466  0.18637  0.51427  1.0000
  C   C324      1.0  0.01662  0.11539  0.51017  1.0000
  H   H577      1.0  0.97613  0.22942  0.71169  1.0000
  C   C325      1.0  0.39781  0.19600  0.52167  1.0000
  C   C326      1.0  0.05211  0.46886  0.74926  1.0000
  H   H578      1.0  0.15119  0.14332  0.51364  1.0000
  C   C327      1.0  0.98246  0.10892  0.64885  1.0000
  C   C328      1.0  0.46973  0.17908  0.68571  1.0000
  H   H579      1.0  0.18794  0.23693  0.50622  1.0000
  H   H580      1.0  0.01313  0.02560  0.74465  1.0000
  C   C329      1.0  0.40697  0.47227  0.57792  1.0000
  C   C330      1.0  0.45864  0.98409  0.50719  1.0000
  H   H581      1.0  0.45455  0.06217  0.54392  1.0000
  H   H582      1.0  0.97941  0.28057  0.58223  1.0000
  H   H583      1.0  0.98764  0.10830  0.63063  1.0000
  H   H584      1.0  0.45478  0.99299  0.52265  1.0000
  H   H585      1.0  0.46812  0.11396  0.72537  1.0000
  H   H586      1.0  0.00965  0.98264  0.74815  1.0000
  H   H587      1.0  0.97226  0.29765  0.71851  1.0000
  H   H588      1.0  0.03073  0.46049  0.74956  1.0000
  H   H589      1.0  0.97645  0.44969  0.54825  1.0000
  C   C331      1.0  0.03355  0.03388  0.75073  1.0000
  H   H590      1.0  0.01316  0.03643  0.50168  1.0000
  C   C332      1.0  0.00439  0.43321  0.50177  1.0000
  Fe  Fe33      1.0  0.33855  0.43966  0.88609  1.0000
  Fe  Fe34      1.0  0.45270  0.34262  0.75859  1.0000
  S   S67       1.0  0.35377  0.42144  0.85814  1.0000
  Fe  Fe35      1.0  0.29512  0.45439  0.89828  1.0000
  H   H591      1.0  0.02347  0.01400  0.78407  1.0000
  S   S68       1.0  0.25420  0.44768  0.88914  1.0000
  C   C333      1.0  0.37961  0.22411  0.79556  1.0000
  S   S69       1.0  0.38661  0.03046  0.89687  1.0000
  Fe  Fe36      1.0  0.33079  0.45380  0.93703  1.0000
  H   H592      1.0  0.17714  0.00609  0.81735  1.0000
  H   H593      1.0  0.42938  0.31451  0.89925  1.0000
  S   S70       1.0  0.30384  0.42331  0.91092  1.0000
  H   H594      1.0  0.99548  0.07313  0.89122  1.0000
  S   S71       1.0  0.99553  0.13410  0.81696  1.0000
  H   H595      1.0  0.45490  0.07003  0.88816  1.0000
  C   C334      1.0  0.97740  0.43875  0.82872  1.0000
  S   S72       1.0  0.03983  0.16037  0.77678  1.0000
  Fe  Fe37      1.0  0.02641  0.12630  0.80188  1.0000
  S   S73       1.0  0.05099  0.11695  0.82826  1.0000
  Fe  Fe38      1.0  0.00655  0.16566  0.78950  1.0000
  S   S74       1.0  0.01423  0.20778  0.79194  1.0000
  S   S75       1.0  0.00002  0.09812  0.77444  1.0000
  C   C335      1.0  0.03894  0.47256  0.96756  1.0000
  Fe  Fe39      1.0  0.15589  0.00695  0.89008  1.0000
  H   H596      1.0  0.99235  0.43503  0.82114  1.0000
  S   S76       1.0  0.19579  0.01171  0.87967  1.0000
  Fe  Fe40      1.0  0.11342  0.02354  0.87892  1.0000
  S   S77       1.0  0.08765  0.99730  0.90775  1.0000
  S   S78       1.0  0.09438  0.03867  0.85165  1.0000
  Fe  Fe41      1.0  0.12367  0.01127  0.92997  1.0000
  S   S79       1.0  0.12521  0.02277  0.96858  1.0000
  C   C336      1.0  0.04919  0.97952  0.79125  1.0000
  S   S80       1.0  0.06320  0.43497  0.89369  1.0000
  S   S81       1.0  0.14957  0.03980  0.90219  1.0000
  S   S82       1.0  0.12239  0.99335  0.86439  1.0000
  H   H597      1.0  0.43555  0.02659  0.89323  1.0000
  S   S83       1.0  0.42397  0.31480  0.78505  1.0000
  Fe  Fe42      1.0  0.99212  0.36181  0.78769  1.0000
  C   C337      1.0  0.98562  0.44119  0.88884  1.0000
  S   S84       1.0  0.03430  0.39183  0.78983  1.0000
  Fe  Fe43      1.0  0.45754  0.31056  0.79853  1.0000
  S   S85       1.0  0.44916  0.26944  0.80787  1.0000
  Fe  Fe44      1.0  0.43690  0.34923  0.80959  1.0000
  S   S86       1.0  0.41333  0.35707  0.83813  1.0000
  H   H598      1.0  0.44801  0.32851  0.87272  1.0000
  C   C338      1.0  0.36484  0.24462  0.86726  1.0000
  C   C339      1.0  0.05575  0.42337  0.86475  1.0000
  C   C340      1.0  0.07508  0.43115  0.84754  1.0000
  C   C341      1.0  0.06849  0.42152  0.82439  1.0000
  C   C342      1.0  0.04252  0.40462  0.81842  1.0000
  C   C343      1.0  0.02326  0.39743  0.83555  1.0000
  C   C344      1.0  0.02993  0.40611  0.85882  1.0000
  H   H599      1.0  0.09514  0.44405  0.85219  1.0000
  H   H600      1.0  0.08349  0.42713  0.81119  1.0000
  H   H601      1.0  0.00315  0.38549  0.83091  1.0000
  H   H602      1.0  0.01498  0.39994  0.87212  1.0000
  C   C345      1.0  0.11472  0.00011  0.99213  1.0000
  H   H603      1.0  0.97232  0.46711  0.84743  1.0000
  C   C346      1.0  0.99357  0.10542  0.87751  1.0000
  C   C347      1.0  0.99405  0.22228  0.79207  1.0000
  H   H604      1.0  0.43475  0.23432  0.76512  1.0000
  H   H605      1.0  0.01358  0.11565  0.87019  1.0000
  H   H606      1.0  0.05757  0.46010  0.76387  1.0000
  C   C348      1.0  0.99048  0.26159  0.78838  1.0000
  C   C349      1.0  0.00527  0.24895  0.78726  1.0000
  H   H607      1.0  0.45483  0.04402  0.93470  1.0000
  H   H608      1.0  0.43625  0.21667  0.81601  1.0000
  H   H609      1.0  0.99946  0.28204  0.78484  1.0000
  H   H610      1.0  0.02568  0.25996  0.78291  1.0000
  C   C350      1.0  0.06291  0.09493  0.83428  1.0000
  C   C351      1.0  0.05897  0.07481  0.81889  1.0000
  C   C352      1.0  0.06873  0.05805  0.82459  1.0000
  C   C353      1.0  0.08250  0.06077  0.84577  1.0000
  C   C354      1.0  0.08622  0.08070  0.86126  1.0000
  C   C355      1.0  0.07661  0.09759  0.85551  1.0000
  H   H611      1.0  0.04872  0.07242  0.80243  1.0000
  H   H612      1.0  0.06581  0.04292  0.81245  1.0000
  H   H613      1.0  0.09678  0.08335  0.87759  1.0000
  H   H614      1.0  0.07994  0.11298  0.86765  1.0000
  C   C356      1.0  0.42146  0.28694  0.87068  1.0000
  S   S87       1.0  0.13172  0.97985  0.91888  1.0000
  C   C357      1.0  0.23741  0.00308  0.87539  1.0000
  C   C358      1.0  0.04195  0.47115  0.82624  1.0000
  C   C359      1.0  0.07620  0.99004  0.77957  1.0000
  C   C360      1.0  0.27548  0.00763  0.98554  1.0000
  H   H615      1.0  0.00894  0.45341  0.99326  1.0000
  H   H616      1.0  0.24659  0.02129  0.86600  1.0000
  C   C361      1.0  0.46258  0.43880  0.77827  1.0000
  H   H617      1.0  0.20313  0.43784  0.87590  1.0000
  C   C362      1.0  0.36998  0.40306  0.85299  1.0000
  C   C363      1.0  0.37589  0.39082  0.87117  1.0000
  C   C364      1.0  0.38882  0.37677  0.86618  1.0000
  C   C365      1.0  0.39640  0.37476  0.84299  1.0000
  C   C366      1.0  0.39063  0.38709  0.82480  1.0000
  C   C367      1.0  0.37749  0.40097  0.82977  1.0000
  H   H618      1.0  0.37031  0.39203  0.88911  1.0000
  H   H619      1.0  0.39302  0.36740  0.88050  1.0000
  H   H620      1.0  0.39612  0.38583  0.80684  1.0000
  H   H621      1.0  0.37310  0.41020  0.81545  1.0000
  C   C368      1.0  0.39624  0.04461  0.86884  1.0000
  C   C369      1.0  0.38722  0.02961  0.84833  1.0000
  C   C370      1.0  0.39587  0.04108  0.82611  1.0000
  C   C371      1.0  0.41407  0.06745  0.82438  1.0000
  C   C372      1.0  0.42301  0.08256  0.84487  1.0000
  C   C373      1.0  0.41388  0.07117  0.86707  1.0000
  H   H622      1.0  0.37388  0.00911  0.84951  1.0000
  H   H623      1.0  0.38892  0.02936  0.81028  1.0000
  H   H624      1.0  0.43673  0.10302  0.84358  1.0000
  H   H625      1.0  0.42061  0.08290  0.88290  1.0000
  Fe  Fe45      1.0  0.46776  0.11154  0.79635  1.0000
  H   H626      1.0  0.07212  0.34882  0.77692  1.0000
  H   H627      1.0  0.09733  0.47237  0.96657  1.0000
  H   H628      1.0  0.04952  0.99480  0.80280  1.0000
  C   C374      1.0  0.98181  0.03132  0.82826  1.0000
  C   C375      1.0  0.98557  0.02806  0.87114  1.0000
  H   H629      1.0  0.17881  0.45401  0.95106  1.0000
  C   C376      1.0  0.98393  0.06559  0.85358  1.0000
  H   H630      1.0  0.97327  0.40077  0.88159  1.0000
  H   H631      1.0  0.04036  0.34570  0.77849  1.0000
  H   H632      1.0  0.05647  0.02590  0.77466  1.0000
  C   C377      1.0  0.01566  0.04194  0.87175  1.0000
  C   C378      1.0  0.02537  0.03440  0.89371  1.0000
  H   H633      1.0  0.36463  0.20682  0.78595  1.0000
  C   C379      1.0  0.43981  0.31140  0.88448  1.0000
  H   H634      1.0  0.03732  0.45221  0.83366  1.0000
  H   H635      1.0  0.46706  0.21882  0.75732  1.0000
  H   H636      1.0  0.00288  0.04473  0.82516  1.0000
  C   C380      1.0  0.03593  0.01606  0.76872  1.0000
  H   H637      1.0  0.03014  0.46809  0.81007  1.0000
  H   H638      1.0  0.31409  0.01251  0.99372  1.0000
  H   H639      1.0  0.97678  0.01126  0.78253  1.0000
  H   H640      1.0  0.00423  0.07681  0.84712  1.0000
  H   H641      1.0  0.28127  0.02814  0.98933  1.0000
  H   H642      1.0  0.98049  0.29682  0.83707  1.0000
  H   H643      1.0  0.36649  0.27769  0.80113  1.0000
  H   H644      1.0  0.38287  0.30633  0.81893  1.0000
  C   C381      1.0  0.21282  0.45659  0.88444  1.0000
  H   H645      1.0  0.03552  0.44748  0.99631  1.0000
  C   C382      1.0  0.45631  0.04413  0.84783  1.0000
  H   H646      1.0  0.02298  0.03648  0.85600  1.0000
  H   H647      1.0  0.02451  0.06325  0.87196  1.0000
  H   H648      1.0  0.01978  0.04083  0.90999  1.0000
  H   H649      1.0  0.01739  0.01321  0.89436  1.0000
  H   H650      1.0  0.04689  0.04388  0.89323  1.0000
  C   C383      1.0  0.28983  0.47339  0.82567  1.0000
  H   H651      1.0  0.45259  0.17332  0.77184  1.0000
  H   H652      1.0  0.15908  0.98328  0.79417  1.0000
  H   H653      1.0  0.98589  0.28140  0.86226  1.0000
  H   H654      1.0  0.32463  0.27751  0.80725  1.0000
  H   H655      1.0  0.41008  0.00747  0.92920  1.0000
  C   C384      1.0  0.42602  0.46317  0.88231  1.0000
  C   C385      1.0  0.97952  0.41429  0.89689  1.0000
  H   H656      1.0  0.09548  0.99184  0.81307  1.0000
  C   C386      1.0  0.19988  0.47105  0.88628  1.0000
  C   C387      1.0  0.16676  0.46258  0.95641  1.0000
  H   H657      1.0  0.41380  0.27064  0.88333  1.0000
  S   S88       1.0  0.46300  0.37710  0.78188  1.0000
  H   H658      1.0  0.06284  0.42756  0.75307  1.0000
  H   H659      1.0  0.44989  0.42800  0.98793  1.0000
  H   H660      1.0  0.42550  0.00371  0.95500  1.0000
  H   H661      1.0  0.14228  0.99072  0.81677  1.0000
  H   H662      1.0  0.33840  0.25311  0.83545  1.0000
  C   C388      1.0  0.35702  0.27120  0.83914  1.0000
  N   N19       1.0  0.27537  0.00343  0.95924  1.0000
  C   C389      1.0  0.25328  0.00543  0.94827  1.0000
  N   N20       1.0  0.46985  0.44267  0.84706  1.0000
  H   H663      1.0  0.40992  0.13941  0.78574  1.0000
  C   C390      1.0  0.30122  0.02361  0.94930  1.0000
  C   C391      1.0  0.30255  0.02677  0.92196  1.0000
  C   C392      1.0  0.25413  0.03160  0.95212  1.0000
  S   S89       1.0  0.36562  0.46804  0.91327  1.0000
  H   H664      1.0  0.38907  0.24041  0.78286  1.0000
  H   H665      1.0  0.44085  0.44518  0.80483  1.0000
  C   C393      1.0  0.33034  0.04502  0.91380  1.0000
  C   C394      1.0  0.23374  0.03336  0.93700  1.0000
  H   H666      1.0  0.46736  0.02212  0.93430  1.0000
  C   C395      1.0  0.34373  0.29517  0.81026  1.0000
  H   H667      1.0  0.21412  0.01640  0.93993  1.0000
  H   H668      1.0  0.12530  0.44805  0.96139  1.0000
  H   H669      1.0  0.99684  0.41517  0.90536  1.0000
  H   H670      1.0  0.42906  0.43059  0.85049  1.0000
  H   H671      1.0  0.25556  0.99613  0.99290  1.0000
  H   H672      1.0  0.30750  0.04300  0.95708  1.0000
  H   H673      1.0  0.31670  0.01921  0.95451  1.0000
  H   H674      1.0  0.29046  0.03504  0.91585  1.0000
  H   H675      1.0  0.29557  0.00802  0.91283  1.0000
  H   H676      1.0  0.25001  0.03359  0.97091  1.0000
  H   H677      1.0  0.27332  0.04830  0.94758  1.0000
  N   N21       1.0  0.37726  0.26519  0.84851  1.0000
  H   H678      1.0  0.26676  0.41840  0.98262  1.0000
  H   H679      1.0  0.27788  0.46267  0.81009  1.0000
  H   H680      1.0  0.28047  0.46174  0.84171  1.0000
  H   H681      1.0  0.40748  0.44450  0.88266  1.0000
  H   H682      1.0  0.34660  0.22794  0.86034  1.0000
  H   H683      1.0  0.39446  0.21970  0.80259  1.0000
  H   H684      1.0  0.34336  0.03751  0.91908  1.0000
  H   H685      1.0  0.33079  0.04659  0.89421  1.0000
  H   H686      1.0  0.33779  0.06461  0.92148  1.0000
  H   H687      1.0  0.23316  0.05118  0.94156  1.0000
  H   H688      1.0  0.23876  0.03436  0.91799  1.0000
  H   H689      1.0  0.35773  0.21403  0.82771  1.0000
  C   C396      1.0  0.39959  0.28976  0.85842  1.0000
  H   H690      1.0  0.46120  0.19344  0.81358  1.0000
  H   H691      1.0  0.02700  0.46013  0.88258  1.0000
  N   N22       1.0  0.01119  0.47528  0.85655  1.0000
  H   H692      1.0  0.43716  0.02859  0.85408  1.0000
  C   C397      1.0  0.05315  0.33893  0.78616  1.0000
  H   H693      1.0  0.43314  0.28371  0.85721  1.0000
  S   S90       1.0  0.42573  0.08099  0.79649  1.0000
  C   C398      1.0  0.45218  0.02580  0.92694  1.0000
  C   C399      1.0  0.23829  0.46628  0.89314  1.0000
  H   H694      1.0  0.03064  0.45604  0.95497  1.0000
  C   C400      1.0  0.44832  0.44824  0.85316  1.0000
  H   H695      1.0  0.47082  0.11752  0.88126  1.0000
  H   H696      1.0  0.13309  0.43299  0.93761  1.0000
  H   H697      1.0  0.37740  0.23626  0.87172  1.0000
  H   H698      1.0  0.25222  0.38468  0.99037  1.0000
  H   H699      1.0  0.42229  0.98506  0.92880  1.0000
  H   H700      1.0  0.40937  0.30420  0.84414  1.0000
  C   C401      1.0  0.36701  0.23097  0.81572  1.0000
  C   C402      1.0  0.38754  0.25523  0.82930  1.0000
  H   H701      1.0  0.97832  0.02974  0.88881  1.0000
  C   C403      1.0  0.03205  0.98040  0.85892  1.0000
  C   C404      1.0  0.36441  0.28804  0.81651  1.0000
  C   C405      1.0  0.41452  0.14078  0.76658  1.0000
  H   H702      1.0  0.27005  0.99673  0.87056  1.0000
  H   H703      1.0  0.04437  0.31780  0.78328  1.0000
  H   H704      1.0  0.39899  0.27073  0.81631  1.0000
  H   H705      1.0  0.45729  0.01878  0.82054  1.0000
  H   H706      1.0  0.30944  0.47569  0.82356  1.0000
  H   H707      1.0  0.00816  0.43773  0.86058  1.0000
  C   C406      1.0  0.98368  0.29795  0.85643  1.0000
  H   H708      1.0  0.35161  0.23401  0.80795  1.0000
  H   H709      1.0  0.00346  0.33974  0.86057  1.0000
  H   H710      1.0  0.04442  0.99765  0.87000  1.0000
  C   C407      1.0  0.42590  0.00410  0.93539  1.0000
  C   C408      1.0  0.34413  0.23054  0.90773  1.0000
  H   H711      1.0  0.34424  0.26076  0.88714  1.0000
  H   H712      1.0  0.18055  0.46342  0.87905  1.0000
  H   H713      1.0  0.35624  0.99134  0.97085  1.0000
  C   C409      1.0  0.15898  0.98776  0.81322  1.0000
  S   S91       1.0  0.33230  0.44543  0.97604  1.0000
  H   H714      1.0  0.35706  0.22266  0.91224  1.0000
  H   H715      1.0  0.44696  0.44430  0.89215  1.0000
  H   H716      1.0  0.13560  0.42485  0.96784  1.0000
  N   N23       1.0  0.03320  0.33017  0.85236  1.0000
  C   C410      1.0  0.03126  0.33364  0.82614  1.0000
  C   C411      1.0  0.00777  0.32380  0.86384  1.0000
  C   C412      1.0  0.05387  0.35593  0.86217  1.0000
  C   C413      1.0  0.04053  0.30981  0.85802  1.0000
  C   C414      1.0  0.03144  0.28690  0.84030  1.0000
  C   C415      1.0  0.05735  0.34515  0.81251  1.0000
  C   C416      1.0  0.05664  0.35797  0.88950  1.0000
  H   H717      1.0  0.21512  0.46945  0.98650  1.0000
  H   H718      1.0  0.40159  0.24994  0.83682  1.0000
  C   C417      1.0  0.03580  0.26555  0.85026  1.0000
  C   C418      1.0  0.46805  0.42254  0.86436  1.0000
  C   C419      1.0  0.08238  0.38142  0.89702  1.0000
  H   H719      1.0  0.02334  0.34683  0.82291  1.0000
  H   H720      1.0  0.01699  0.31525  0.81754  1.0000
  H   H721      1.0  0.00900  0.32248  0.88335  1.0000
  H   H722      1.0  0.44862  0.46308  0.84110  1.0000
  H   H723      1.0  0.05035  0.37171  0.85620  1.0000
  H   H724      1.0  0.07328  0.36099  0.85505  1.0000
  H   H725      1.0  0.06202  0.31859  0.85930  1.0000
  H   H726      1.0  0.03326  0.30155  0.87589  1.0000
  H   H727      1.0  0.04255  0.29357  0.82358  1.0000
  C   C420      1.0  0.03032  0.46269  0.99274  1.0000
  H   H728      1.0  0.06806  0.36657  0.81449  1.0000
  H   H729      1.0  0.06992  0.33781  0.81947  1.0000
  H   H730      1.0  0.05572  0.34045  0.89723  1.0000
  H   H731      1.0  0.04081  0.36045  0.89720  1.0000
  H   H732      1.0  0.07921  0.00361  0.76495  1.0000
  H   H733      1.0  0.97277  0.07114  0.84146  1.0000
  C   C421      1.0  0.13845  0.44080  0.95587  1.0000
  C   C422      1.0  0.17446  0.47478  0.98144  1.0000
  C   C423      1.0  0.46059  0.44763  0.80315  1.0000
  H   H734      1.0  0.02976  0.24985  0.83693  1.0000
  C   C424      1.0  0.98318  0.07628  0.87842  1.0000
  H   H735      1.0  0.02401  0.25713  0.86644  1.0000
  Fe  Fe46      1.0  0.35476  0.98870  0.89675  1.0000
  H   H736      1.0  0.34197  0.30692  0.82464  1.0000
  C   C425      1.0  0.98901  0.46651  0.83911  1.0000
  H   H737      1.0  0.08453  0.39940  0.88907  1.0000
  H   H738      1.0  0.08298  0.38352  0.91656  1.0000
  H   H739      1.0  0.09898  0.37904  0.89145  1.0000
  H   H740      1.0  0.99923  0.04586  0.78200  1.0000
  H   H741      1.0  0.39245  0.29933  0.87082  1.0000
  H   H742      1.0  0.16927  0.47714  0.94299  1.0000
  H   H743      1.0  0.35223  0.28157  0.85283  1.0000
  H   H744      1.0  0.05664  0.27320  0.85447  1.0000
  C   C426      1.0  0.44882  0.45846  0.87853  1.0000
  S   S92       1.0  0.97859  0.13875  0.76219  1.0000
  H   H745      1.0  0.33929  0.23720  0.92430  1.0000
  H   H746      1.0  0.23440  0.99038  0.95554  1.0000
  H   H747      1.0  0.32583  0.21491  0.89988  1.0000
  H   H748      1.0  0.25183  0.00111  0.92901  1.0000
  H   H749      1.0  0.97962  0.01169  0.82785  1.0000
  C   C427      1.0  0.00908  0.45345  0.87166  1.0000
  H   H750      1.0  0.17150  0.45877  0.99342  1.0000
  C   C428      1.0  0.09802  0.00432  0.79757  1.0000
  H   H751      1.0  0.44709  0.41188  0.82225  1.0000
  S   S93       1.0  0.46851  0.34285  0.82494  1.0000
  H   H752      1.0  0.37517  0.26850  0.89966  1.0000
  C   C429      1.0  0.26516  0.40473  0.99675  1.0000
  C   C430      1.0  0.46471  0.43145  0.82239  1.0000
  C   C431      1.0  0.35762  0.25321  0.89058  1.0000
  C   C432      1.0  0.21213  0.99353  0.88438  1.0000
  H   H753      1.0  0.98084  0.10978  0.86637  1.0000
  H   H754      1.0  0.01065  0.27805  0.83571  1.0000
  C   C433      1.0  0.45630  0.22702  0.81043  1.0000
  H   H755      1.0  0.99417  0.11297  0.89557  1.0000
  S   S94       1.0  0.32720  0.46806  0.87133  1.0000
  H   H756      1.0  0.44759  0.40631  0.86521  1.0000
  Fe  Fe47      1.0  0.09781  0.47479  0.89579  1.0000
  H   H757      1.0  0.28748  0.98065  0.99976  1.0000
  C   C434      1.0  0.45362  0.02716  0.89952  1.0000
  H   H758      1.0  0.45794  0.37346  0.87580  1.0000
  C   C435      1.0  0.25090  0.98922  0.87807  1.0000
  H   H759      1.0  0.44736  0.41829  0.77551  1.0000
  H   H760      1.0  0.45627  0.06265  0.84809  1.0000
  H   H761      1.0  0.99019  0.45349  0.90490  1.0000
  C   C436      1.0  0.45925  0.03823  0.82210  1.0000
  H   H762      1.0  0.44386  0.03856  0.81115  1.0000
  C   C437      1.0  0.43547  0.16841  0.76061  1.0000
  S   S95       1.0  0.97946  0.32834  0.76308  1.0000
  H   H763      1.0  0.34943  0.30693  0.79384  1.0000
  H   H764      1.0  0.26098  0.47776  0.98449  1.0000
  C   C438      1.0  0.46797  0.25360  0.80513  1.0000
  H   H765      1.0  0.20656  0.99434  0.98610  1.0000
  H   H766      1.0  0.97999  0.10688  0.94597  1.0000
  H   H767      1.0  0.08142  0.43844  0.99744  1.0000
  H   H768      1.0  0.42477  0.47523  0.86800  1.0000
  H   H769      1.0  0.45190  0.00882  0.89291  1.0000
  H   H770      1.0  0.46713  0.47695  0.88163  1.0000
  H   H771      1.0  0.45965  0.45082  0.76499  1.0000
  C   C439      1.0  0.97850  0.03065  0.78349  1.0000
  H   H772      1.0  0.07328  0.47253  0.80545  1.0000
  H   H773      1.0  0.02560  0.98687  0.84321  1.0000
  H   H774      1.0  0.28467  0.40714  0.00014  1.0000
  H   H775      1.0  0.09835  0.02217  0.80370  1.0000
  H   H776      1.0  0.97891  0.00713  0.86905  1.0000
  C   C440      1.0  0.34314  0.47038  0.99753  1.0000
  H   H777      1.0  0.46800  0.46001  0.97512  1.0000
  N   N24       1.0  0.97406  0.03688  0.85200  1.0000
  C   C441      1.0  0.34969  0.98528  0.98877  1.0000
  H   H778      1.0  0.39651  0.13517  0.75634  1.0000
  H   H779      1.0  0.11704  0.01001  0.78927  1.0000
  C   C442      1.0  0.46321  0.44881  0.99185  1.0000
  C   C443      1.0  0.47040  0.21370  0.80896  1.0000
  H   H780      1.0  0.42794  0.18144  0.76564  1.0000
  H   H781      1.0  0.42139  0.12691  0.76269  1.0000
  H   H782      1.0  0.03976  0.05301  0.75900  1.0000
  H   H783      1.0  0.45609  0.30949  0.89192  1.0000
  H   H784      1.0  0.07926  0.39644  0.76247  1.0000
  H   H785      1.0  0.42813  0.47293  0.89954  1.0000
  C   C444      1.0  0.02842  0.98945  0.75760  1.0000
  C   C445      1.0  0.10166  0.47784  0.98495  1.0000
  C   C446      1.0  0.29387  0.00159  0.00033  1.0000
  C   C447      1.0  0.18546  0.55518  0.10127  1.0000
  Fe  Fe48      1.0  0.34861  0.86898  0.24009  1.0000
  S   S96       1.0  0.34898  0.84255  0.21219  1.0000
  S   S97       1.0  0.33647  0.89885  0.23578  1.0000
  C   C448      1.0  0.38306  0.97740  0.22263  1.0000
  S   S98       1.0  0.29732  0.77034  0.23377  1.0000
  Fe  Fe49      1.0  0.38922  0.85410  0.22610  1.0000
  S   S99       1.0  0.42159  0.86941  0.19723  1.0000
  C   C449      1.0  0.20695  0.55002  0.13812  1.0000
  H   H786      1.0  0.12944  0.96456  0.22053  1.0000
  Fe  Fe50      1.0  0.36336  0.52354  0.09340  1.0000
  S   S100      1.0  0.35877  0.54971  0.11930  1.0000
  H   H787      1.0  0.19523  0.72328  0.18330  1.0000
  H   H788      1.0  0.25696  0.71807  0.22405  1.0000
  S   S101      1.0  0.34281  0.50505  0.15876  1.0000
  C   C450      1.0  0.25721  0.56853  0.16096  1.0000
  Fe  Fe51      1.0  0.32149  0.51374  0.13000  1.0000
  S   S102      1.0  0.28400  0.51655  0.12656  1.0000
  Fe  Fe52      1.0  0.38070  0.53880  0.14558  1.0000
  S   S103      1.0  0.41193  0.56406  0.17362  1.0000
  C   C451      1.0  0.39012  0.89309  0.15013  1.0000
  S   S104      1.0  0.38811  0.51583  0.11846  1.0000
  Fe  Fe53      1.0  0.13845  0.67316  0.22973  1.0000
  H   H789      1.0  0.36342  0.53453  0.00424  1.0000
  S   S105      1.0  0.17247  0.71545  0.23268  1.0000
  Fe  Fe54      1.0  0.08168  0.63094  0.21281  1.0000
  S   S106      1.0  0.32133  0.92555  0.13129  1.0000
  S   S107      1.0  0.04783  0.61292  0.18524  1.0000
  Fe  Fe55      1.0  0.12193  0.61581  0.22707  1.0000
  S   S108      1.0  0.13586  0.58708  0.22376  1.0000
  H   H790      1.0  0.13728  0.97659  0.25062  1.0000
  S   S109      1.0  0.12270  0.64366  0.19996  1.0000
  Fe  Fe56      1.0  0.12237  0.95944  0.13487  1.0000
  N   N25       1.0  0.04657  0.51102  0.21296  1.0000
  S   S110      1.0  0.15574  0.95143  0.14377  1.0000
  Fe  Fe57      1.0  0.06382  0.94558  0.14248  1.0000
  H   H791      1.0  0.10519  0.56057  0.06004  1.0000
  S   S111      1.0  0.02618  0.93227  0.16502  1.0000
  Fe  Fe58      1.0  0.08865  0.95458  0.09223  1.0000
  S   S112      1.0  0.08418  0.94189  0.05374  1.0000
  H   H792      1.0  0.13104  0.92616  0.05620  1.0000
  S   S113      1.0  0.11799  0.53637  0.12261  1.0000
  S   S114      1.0  0.08329  0.92707  0.12196  1.0000
  H   H793      1.0  0.41010  0.52990  0.21012  1.0000
  C   C452      1.0  0.98431  0.92963  0.10512  1.0000
  C   C453      1.0  0.44553  0.57446  0.17951  1.0000
  C   C454      1.0  0.41695  0.92617  0.18145  1.0000
  C   C455      1.0  0.12030  0.51072  0.01530  1.0000
  H   H794      1.0  0.18452  0.56292  0.17789  1.0000
  H   H795      1.0  0.11531  0.49687  0.05128  1.0000
  H   H796      1.0  0.13072  0.53091  0.02038  1.0000
  C   C456      1.0  0.13276  0.57412  0.19537  1.0000
  C   C457      1.0  0.13205  0.55045  0.19269  1.0000
  C   C458      1.0  0.12770  0.53883  0.17034  1.0000
  C   C459      1.0  0.12468  0.55109  0.15055  1.0000
  C   C460      1.0  0.12649  0.57528  0.15310  1.0000
  C   C461      1.0  0.13025  0.58666  0.17553  1.0000
  H   H797      1.0  0.13407  0.54074  0.20801  1.0000
  H   H798      1.0  0.12642  0.52030  0.16851  1.0000
  H   H799      1.0  0.12425  0.58492  0.13782  1.0000
  H   H800      1.0  0.13102  0.60503  0.17744  1.0000
  H   H801      1.0  0.46796  0.88578  0.22794  1.0000
  H   H802      1.0  0.08767  0.93567  0.00375  1.0000
  C   C462      1.0  0.36126  0.93832  0.06716  1.0000
  C   C463      1.0  0.40229  0.97155  0.03104  1.0000
  C   C464      1.0  0.40674  0.97391  0.22049  1.0000
  C   C465      1.0  0.23313  0.50341  0.11725  1.0000
  H   H803      1.0  0.25818  0.58735  0.16419  1.0000
  H   H804      1.0  0.19514  0.93664  0.14557  1.0000
  C   C466      1.0  0.15926  0.48403  0.19989  1.0000
  H   H805      1.0  0.24169  0.52031  0.10602  1.0000
  H   H806      1.0  0.20942  0.93337  0.06894  1.0000
  C   C467      1.0  0.12150  0.90441  0.08822  1.0000
  H   H807      1.0  0.98169  0.97072  0.17749  1.0000
  C   C468      1.0  0.01354  0.59997  0.17994  1.0000
  C   C469      1.0  0.00234  0.58621  0.15879  1.0000
  H   H808      1.0  0.04524  0.93140  0.23844  1.0000
  H   H809      1.0  0.23036  0.52764  0.16359  1.0000
  H   H810      1.0  0.41164  0.97022  0.23851  1.0000
  H   H811      1.0  0.01458  0.58375  0.14616  1.0000
  H   H812      1.0  0.07721  0.54036  0.17236  1.0000
  C   C470      1.0  0.97992  0.91466  0.18985  1.0000
  H   H813      1.0  0.19356  0.49476  0.11055  1.0000
  H   H814      1.0  0.40623  0.88914  0.14669  1.0000
  H   H815      1.0  0.01210  0.50258  0.23242  1.0000
  H   H816      1.0  0.34518  0.89649  0.06650  1.0000
  H   H817      1.0  0.04750  0.49608  0.07097  1.0000
  H   H818      1.0  0.35780  0.95203  0.07765  1.0000
  C   C471      1.0  0.26258  0.75497  0.23562  1.0000
  C   C472      1.0  0.35813  0.51497  0.00909  1.0000
  C   C473      1.0  0.06114  0.49801  0.20398  1.0000
  C   C474      1.0  0.20705  0.72952  0.23505  1.0000
  H   H819      1.0  0.02668  0.52951  0.19739  1.0000
  C   C475      1.0  0.35322  0.48387  0.03889  1.0000
  H   H820      1.0  0.31638  0.52489  0.05281  1.0000
  H   H821      1.0  0.00531  0.61372  0.21209  1.0000
  H   H822      1.0  0.36860  0.49005  0.19377  1.0000
  H   H823      1.0  0.21900  0.60040  0.23108  1.0000
  C   C476      1.0  0.45615  0.88502  0.19185  1.0000
  C   C477      1.0  0.21177  0.50185  0.05264  1.0000
  H   H824      1.0  0.25299  0.51168  0.00223  1.0000
  C   C478      1.0  0.99531  0.90744  0.17640  1.0000
  C   C479      1.0  0.98583  0.88097  0.17278  1.0000
  H   H825      1.0  0.43071  0.93686  0.22735  1.0000
  C   C480      1.0  0.46537  0.63471  0.14048  1.0000
  H   H826      1.0  0.38960  0.93286  0.21427  1.0000
  H   H827      1.0  0.99721  0.87482  0.16265  1.0000
  C   C481      1.0  0.45633  0.58584  0.20160  1.0000
  C   C482      1.0  0.33104  0.90509  0.20668  1.0000
  C   C483      1.0  0.32264  0.92287  0.20263  1.0000
  C   C484      1.0  0.31934  0.92905  0.17947  1.0000
  C   C485      1.0  0.32402  0.91714  0.16034  1.0000
  C   C486      1.0  0.33149  0.89865  0.16439  1.0000
  C   C487      1.0  0.33542  0.89295  0.18754  1.0000
  H   H828      1.0  0.31887  0.93209  0.21734  1.0000
  H   H829      1.0  0.04120  0.56310  0.16654  1.0000
  H   H830      1.0  0.33509  0.88941  0.14958  1.0000
  H   H831      1.0  0.34207  0.87943  0.19043  1.0000
  N   N26       1.0  0.20711  0.54633  0.16456  1.0000
  H   H832      1.0  0.04535  0.50273  0.00376  1.0000
  H   H833      1.0  0.99711  0.92966  0.11951  1.0000
  H   H834      1.0  0.21231  0.55968  0.21348  1.0000
  C   C488      1.0  0.43594  0.97379  0.05781  1.0000
  C   C489      1.0  0.06998  0.48516  0.22278  1.0000
  H   H835      1.0  0.34956  0.91029  0.09588  1.0000
  H   H836      1.0  0.36783  0.52849  0.21011  1.0000
  S   S115      1.0  0.10270  0.97563  0.15803  1.0000
  C   C490      1.0  0.40135  0.95093  0.20393  1.0000
  S   S116      1.0  0.13050  0.48226  0.09853  1.0000
  H   H837      1.0  0.41387  0.94385  0.01777  1.0000
  C   C491      1.0  0.19043  0.96990  0.14059  1.0000
  H   H838      1.0  0.31203  0.93129  0.02095  1.0000
  C   C492      1.0  0.99724  0.60310  0.19584  1.0000
  H   H839      1.0  0.31275  0.94270  0.17646  1.0000
  C   C493      1.0  0.23249  0.97096  0.14015  1.0000
  C   C494      1.0  0.34390  0.91134  0.07735  1.0000
  C   C495      1.0  0.42495  0.48089  0.14311  1.0000
  H   H840      1.0  0.21459  0.58594  0.16583  1.0000
  H   H841      1.0  0.17482  0.52421  0.20722  1.0000
  C   C496      1.0  0.26226  0.84855  0.22523  1.0000
  H   H842      1.0  0.43657  0.96526  0.09577  1.0000
  H   H843      1.0  0.24687  0.95773  0.09450  1.0000
  H   H844      1.0  0.99767  0.90564  0.23840  1.0000
  H   H845      1.0  0.45446  0.61362  0.13662  1.0000
  H   H846      1.0  0.43516  0.95570  0.05163  1.0000
  H   H847      1.0  0.99372  0.48106  0.14754  1.0000
  H   H848      1.0  0.45021  0.51464  0.16363  1.0000
  H   H849      1.0  0.44406  0.58760  0.21469  1.0000
  Fe  Fe59      1.0  0.35020  0.48277  0.13076  1.0000
  H   H850      1.0  0.45908  0.50989  0.20763  1.0000
  H   H851      1.0  0.06829  0.48851  0.05466  1.0000
  H   H852      1.0  0.16090  0.95557  0.03423  1.0000
  C   C497      1.0  0.45373  0.52757  0.23884  1.0000
  H   H853      1.0  0.97495  0.96526  0.12479  1.0000
  C   C498      1.0  0.20927  0.59397  0.21361  1.0000
  H   H854      1.0  0.99439  0.94841  0.09565  1.0000
  C   C499      1.0  0.07197  0.52562  0.04644  1.0000
  C   C500      1.0  0.28091  0.56920  0.17229  1.0000
  H   H855      1.0  0.28130  0.57249  0.19165  1.0000
  H   H856      1.0  0.28069  0.55071  0.16893  1.0000
  H   H857      1.0  0.29892  0.58516  0.16447  1.0000
  H   H858      1.0  0.26095  0.78834  0.24761  1.0000
  H   H859      1.0  0.44854  0.97119  0.22482  1.0000
  C   C501      1.0  0.21268  0.97200  0.07241  1.0000
  C   C502      1.0  0.09673  0.96479  0.03042  1.0000
  C   C503      1.0  0.33343  0.96991  0.03545  1.0000
  H   H860      1.0  0.14045  0.48121  0.19326  1.0000
  H   H861      1.0  0.03078  0.50833  0.17778  1.0000
  H   H862      1.0  0.43402  0.92467  0.17580  1.0000
  C   C504      1.0  0.40076  0.92095  0.15859  1.0000
  H   H863      1.0  0.04544  0.54234  0.14577  1.0000
  H   H864      1.0  0.40592  0.90972  0.19385  1.0000
  H   H865      1.0  0.24329  0.96084  0.14170  1.0000
  H   H866      1.0  0.33369  0.81684  0.16348  1.0000
  H   H867      1.0  0.37946  0.93033  0.02132  1.0000
  C   C505      1.0  0.04402  0.48481  0.01119  1.0000
  H   H868      1.0  0.16998  0.72955  0.17383  1.0000
  C   C506      1.0  0.21990  0.71601  0.22911  1.0000
  C   C507      1.0  0.35980  0.51016  0.22028  1.0000
  C   C508      1.0  0.00737  0.92559  0.24576  1.0000
  H   H869      1.0  0.20870  0.69597  0.22368  1.0000
  H   H870      1.0  0.33862  0.49864  0.21671  1.0000
  H   H871      1.0  0.44707  0.54159  0.24280  1.0000
  Fe  Fe60      1.0  0.10810  0.49479  0.12158  1.0000
  C   C509      1.0  0.09297  0.53997  0.06515  1.0000
  H   H872      1.0  0.46926  0.64535  0.12351  1.0000
  C   C510      1.0  0.09571  0.95611  0.00711  1.0000
  C   C511      1.0  0.39027  0.94580  0.06826  1.0000
  H   H873      1.0  0.38410  0.92404  0.16115  1.0000
  H   H874      1.0  0.41321  0.93385  0.14426  1.0000
  H   H875      1.0  0.21445  0.97356  0.09203  1.0000
  C   C512      1.0  0.44636  0.51758  0.21305  1.0000
  C   C513      1.0  0.98658  0.54352  0.22829  1.0000
  C   C514      1.0  0.24738  0.72867  0.22929  1.0000
  C   C515      1.0  0.37279  0.49472  0.21277  1.0000
  H   H876      1.0  0.41577  0.49023  0.13316  1.0000
  H   H877      1.0  0.17668  0.56111  0.13681  1.0000
  C   C516      1.0  0.29557  0.51908  0.05078  1.0000
  H   H878      1.0  0.32534  0.78547  0.15198  1.0000
  H   H879      1.0  0.38806  0.94992  0.18962  1.0000
  H   H880      1.0  0.39203  0.92951  0.06067  1.0000
  N   N27       1.0  0.25687  0.80011  0.17529  1.0000
  C   C517      1.0  0.28330  0.80286  0.17917  1.0000
  C   C518      1.0  0.25005  0.81212  0.19566  1.0000
  C   C519      1.0  0.23729  0.77146  0.17464  1.0000
  C   C520      1.0  0.25521  0.81158  0.15201  1.0000
  C   C521      1.0  0.27546  0.84036  0.14777  1.0000
  C   C522      1.0  0.29209  0.78981  0.16044  1.0000
  C   C523      1.0  0.20819  0.76385  0.17577  1.0000
  C   C524      1.0  0.27261  0.83624  0.20786  1.0000
  H   H881      1.0  0.25008  0.83438  0.23895  1.0000
  C   C525      1.0  0.27365  0.84844  0.12251  1.0000
  C   C526      1.0  0.31988  0.79577  0.16511  1.0000
  C   C527      1.0  0.19058  0.73495  0.17104  1.0000
  H   H882      1.0  0.28377  0.79456  0.19668  1.0000
  H   H883      1.0  0.29872  0.82344  0.18026  1.0000
  H   H884      1.0  0.23498  0.81697  0.19008  1.0000
  H   H885      1.0  0.24103  0.79794  0.21025  1.0000
  H   H886      1.0  0.24075  0.76138  0.18963  1.0000
  H   H887      1.0  0.23965  0.76248  0.15827  1.0000
  H   H888      1.0  0.25626  0.80011  0.13697  1.0000
  H   H889      1.0  0.23596  0.81022  0.15003  1.0000
  H   H890      1.0  0.29556  0.84421  0.15034  1.0000
  H   H891      1.0  0.27174  0.85288  0.15974  1.0000
  H   H892      1.0  0.27955  0.76846  0.16097  1.0000
  H   H893      1.0  0.29152  0.79674  0.14239  1.0000
  H   H894      1.0  0.20328  0.77444  0.16255  1.0000
  H   H895      1.0  0.20322  0.76797  0.19356  1.0000
  H   H896      1.0  0.28501  0.83056  0.21806  1.0000
  H   H897      1.0  0.28513  0.85118  0.19504  1.0000
  S   S117      1.0  0.37073  0.53395  0.05448  1.0000
  H   H898      1.0  0.23226  0.51784  0.05253  1.0000
  H   H899      1.0  0.44471  0.48466  0.17568  1.0000
  H   H900      1.0  0.27783  0.83704  0.10950  1.0000
  H   H901      1.0  0.25405  0.84575  0.11900  1.0000
  H   H902      1.0  0.28813  0.86922  0.12004  1.0000
  C   C528      1.0  0.18193  0.54800  0.12748  1.0000
  H   H903      1.0  0.16958  0.92333  0.06974  1.0000
  H   H904      1.0  0.22503  0.95490  0.04448  1.0000
  H   H905      1.0  0.98091  0.91399  0.09247  1.0000
  H   H906      1.0  0.19281  0.73011  0.15255  1.0000
  H   H907      1.0  0.29417  0.53283  0.03849  1.0000
  S   S118      1.0  0.08116  0.60222  0.23885  1.0000
  H   H908      1.0  0.05776  0.54787  0.22964  1.0000
  H   H909      1.0  0.25858  0.56622  0.14160  1.0000
  H   H910      1.0  0.19885  0.50968  0.05731  1.0000
  H   H911      1.0  0.12629  0.90715  0.10739  1.0000
  H   H912      1.0  0.36646  0.95966  0.23000  1.0000
  C   C529      1.0  0.46185  0.57231  0.16292  1.0000
  C   C530      1.0  0.41302  0.49362  0.18218  1.0000
  S   S119      1.0  0.09757  0.66335  0.24013  1.0000
  H   H913      1.0  0.45174  0.88786  0.15430  1.0000
  H   H914      1.0  0.27875  0.86529  0.23413  1.0000
  H   H915      1.0  0.02974  0.97803  0.20230  1.0000
  H   H916      1.0  0.40925  0.50853  0.17410  1.0000
  C   C531      1.0  0.24949  0.49621  0.12907  1.0000
  H   H917      1.0  0.10573  0.53137  0.06683  1.0000
  H   H918      1.0  0.25063  0.85565  0.21575  1.0000
  H   H919      1.0  0.08382  0.54193  0.22511  1.0000
  H   H920      1.0  0.17173  0.94029  0.09629  1.0000
  H   H921      1.0  0.07500  0.56237  0.19276  1.0000
  C   C532      1.0  0.24971  0.76822  0.24247  1.0000
  H   H922      1.0  0.10054  0.89791  0.08608  1.0000
  C   C533      1.0  0.11155  0.49146  0.03284  1.0000
  H   H923      1.0  0.23910  0.58716  0.20026  1.0000
  C   C534      1.0  0.23159  0.54573  0.17061  1.0000
  C   C535      1.0  0.03420  0.94149  0.23463  1.0000
  C   C536      1.0  0.04049  0.52293  0.19205  1.0000
  N   N28       1.0  0.42519  0.95148  0.19401  1.0000
  H   H924      1.0  0.21465  0.61136  0.20264  1.0000
  H   H925      1.0  0.19020  0.54209  0.09117  1.0000
  H   H926      1.0  0.38467  0.97353  0.02949  1.0000
  H   H927      1.0  0.23390  0.54481  0.18995  1.0000
  Fe  Fe61      1.0  0.33091  0.96695  0.12855  1.0000
  H   H928      1.0  0.22302  0.56946  0.13298  1.0000
  H   H929      1.0  0.37888  0.88987  0.13353  1.0000
  H   H930      1.0  0.32340  0.90697  0.07734  1.0000
  S   S120      1.0  0.06681  0.97077  0.11140  1.0000
  C   C537      1.0  0.06393  0.54630  0.18011  1.0000
  H   H931      1.0  0.03151  0.94139  0.21530  1.0000
  H   H932      1.0  0.12507  0.88908  0.08116  1.0000
  H   H933      1.0  0.21067  0.53590  0.12866  1.0000
  H   H934      1.0  0.97455  0.50067  0.02743  1.0000
  H   H935      1.0  0.32157  0.78917  0.18307  1.0000
  C   C538      1.0  0.46550  0.89221  0.16854  1.0000
  C   C539      1.0  0.20524  0.56796  0.17668  1.0000
  C   C540      1.0  0.20508  0.95725  0.14236  1.0000
  H   H936      1.0  0.98351  0.53831  0.24732  1.0000
  H   H937      1.0  0.45248  0.53494  0.20174  1.0000
  H   H938      1.0  0.98775  0.56254  0.22589  1.0000
  H   H939      1.0  0.45406  0.56369  0.14584  1.0000
  C   C541      1.0  0.35983  0.50915  0.03287  1.0000
  C   C542      1.0  0.32489  0.95152  0.01703  1.0000
  C   C543      1.0  0.18402  0.52032  0.17053  1.0000
  H   H940      1.0  0.21736  0.48056  0.02495  1.0000
  H   H941      1.0  0.08549  0.95901  0.22607  1.0000
  H   H942      1.0  0.07919  0.51229  0.19497  1.0000
  C   C544      1.0  0.46722  0.95226  0.20858  1.0000
  H   H943      1.0  0.39493  0.94623  0.08736  1.0000
  N   N29       1.0  0.41805  0.49833  0.20849  1.0000
  C   C545      1.0  0.02110  0.49194  0.22421  1.0000
  H   H944      1.0  0.08199  0.52822  0.02929  1.0000
  C   C546      1.0  0.18067  0.51214  0.19685  1.0000
  C   C547      1.0  0.40243  0.51017  0.21764  1.0000
  H   H945      1.0  0.20110  0.57554  0.09883  1.0000
  Fe  Fe62      1.0  0.33152  0.81176  0.24033  1.0000
  H   H946      1.0  0.06015  0.53524  0.04537  1.0000
  H   H947      1.0  0.46241  0.93268  0.20269  1.0000
  C   C548      1.0  0.16712  0.93925  0.07705  1.0000
  H   H948      1.0  0.44124  0.48227  0.13243  1.0000
  H   H949      1.0  0.16546  0.52792  0.12865  1.0000
  H   H950      1.0  0.19044  0.51213  0.01377  1.0000
  H   H951      1.0  0.18457  0.50489  0.15985  1.0000
  C   C549      1.0  0.44209  0.95298  0.21472  1.0000
  H   H952      1.0  0.16713  0.55315  0.09404  1.0000
  C   C550      1.0  0.43509  0.49421  0.16697  1.0000
  H   H953      1.0  0.06762  0.97243  0.19741  1.0000
  H   H954      1.0  0.16560  0.51963  0.16571  1.0000
  H   H955      1.0  0.13278  0.94399  0.08237  1.0000
  H   H956      1.0  0.37705  0.87923  0.16364  1.0000
  H   H957      1.0  0.18323  0.94417  0.03300  1.0000
  C   C551      1.0  0.13760  0.92977  0.07488  1.0000
  S   S121      1.0  0.32621  0.48845  0.10343  1.0000
  C   C552      1.0  0.21761  0.57629  0.20164  1.0000
  H   H958      1.0  0.21262  0.76636  0.24672  1.0000
  H   H959      1.0  0.35477  0.93812  0.04877  1.0000
  H   H960      1.0  0.28784  0.52041  0.06828  1.0000
  C   C553      1.0  0.20558  0.50717  0.00902  1.0000
  H   H961      1.0  0.40930  0.96859  0.15267  1.0000
  N   N30       1.0  0.40924  0.97101  0.05663  1.0000
  H   H962      1.0  0.19858  0.51376  0.20449  1.0000
  C   C554      1.0  0.05494  0.55704  0.15994  1.0000
  H   H963      1.0  0.07198  0.57427  0.15227  1.0000
  C   C555      1.0  0.20581  0.48911  0.11994  1.0000
  H   H964      1.0  0.18792  0.58352  0.21650  1.0000
  C   C556      1.0  0.39766  0.94788  0.01592  1.0000
  H   H965      1.0  0.03532  0.97752  0.24395  1.0000
  H   H966      1.0  0.08410  0.53920  0.08261  1.0000
  H   H967      1.0  0.22433  0.52564  0.01080  1.0000
  N   N31       1.0  0.18536  0.96471  0.06521  1.0000
  C   C557      1.0  0.09243  0.97712  0.23654  1.0000
  C   C558      1.0  0.18116  0.96087  0.03888  1.0000
  H   H968      1.0  0.45249  0.96996  0.16551  1.0000
  H   H969      1.0  0.98703  0.93491  0.19318  1.0000
  C   C559      1.0  0.04861  0.96942  0.24471  1.0000
  H   H970      1.0  0.32701  0.96381  0.05337  1.0000
  C   C560      1.0  0.22266  0.95376  0.06399  1.0000
  H   H971      1.0  0.00544  0.54557  0.22283  1.0000
  H   H972      1.0  0.45295  0.63930  0.15182  1.0000
  H   H973      1.0  0.99506  0.93428  0.24171  1.0000
  H   H974      1.0  0.25708  0.94993  0.06727  1.0000
  C   C561      1.0  0.28016  0.49160  0.04091  1.0000
  H   H975      1.0  0.02408  0.48141  0.23891  1.0000
  H   H976      1.0  0.40440  0.51271  0.23716  1.0000
  H   H977      1.0  0.36277  0.51470  0.23947  1.0000
  H   H978      1.0  0.04985  0.48344  0.19010  1.0000
  C   C562      1.0  0.44064  0.97433  0.17791  1.0000
  C   C563      1.0  0.24902  0.96148  0.07517  1.0000
  C   C564      1.0  0.22222  0.75564  0.24202  1.0000
  H   H979      1.0  0.28816  0.49165  0.02318  1.0000
  H   H980      1.0  0.20975  0.48787  0.06654  1.0000
  C   C565      1.0  0.06300  0.53238  0.23032  1.0000
  C   C566      1.0  0.97558  0.57592  0.15358  1.0000
  H   H981      1.0  0.08437  0.50007  0.23490  1.0000
  C   C567      1.0  0.20421  0.48829  0.02858  1.0000
  H   H982      1.0  0.25977  0.48698  0.03889  1.0000
  H   H983      1.0  0.10116  0.48636  0.20173  1.0000
  N   N32       1.0  0.03300  0.48007  0.03599  1.0000
  H   H984      1.0  0.00729  0.48783  0.05705  1.0000
  C   C568      1.0  0.01280  0.48820  0.03819  1.0000
  H   H985      1.0  0.02093  0.50868  0.03267  1.0000
  H   H986      1.0  0.06435  0.48857  0.01160  1.0000
  H   H987      1.0  0.30059  0.95718  0.24752  1.0000
  H   H988      1.0  0.97479  0.94476  0.14737  1.0000
  H   H989      1.0  0.99278  0.48045  0.19509  1.0000
  C   C569      1.0  0.05496  0.49652  0.05288  1.0000
  H   H990      1.0  0.34841  0.79519  0.47186  1.0000
  H   H991      1.0  0.33995  0.96561  0.30171  1.0000
  C   C570      1.0  0.26015  0.74038  0.48055  1.0000
  Fe  Fe63      1.0  0.33877  0.89133  0.43244  1.0000
  S   S122      1.0  0.31026  0.88823  0.46032  1.0000
  S   S123      1.0  0.32948  0.88996  0.39327  1.0000
  Fe  Fe64      1.0  0.34540  0.91465  0.48320  1.0000
  C   C571      1.0  0.44595  0.63459  0.48605  1.0000
  Fe  Fe65      1.0  0.31285  0.85349  0.47298  1.0000
  S   S124      1.0  0.27324  0.81499  0.47511  1.0000
  S   S125      1.0  0.37309  0.92034  0.45371  1.0000
  S   S126      1.0  0.34114  0.85713  0.44492  1.0000
  Fe  Fe66      1.0  0.36917  0.84834  0.27773  1.0000
  S   S127      1.0  0.38187  0.85298  0.31632  1.0000
  Fe  Fe67      1.0  0.13398  0.59714  0.47342  1.0000
  S   S128      1.0  0.11003  0.60004  0.44390  1.0000
  C   C572      1.0  0.19815  0.65015  0.28349  1.0000
  Fe  Fe68      1.0  0.17810  0.65610  0.46472  1.0000
  S   S129      1.0  0.15536  0.66111  0.43564  1.0000
  S   S130      1.0  0.21919  0.69039  0.47361  1.0000
  Fe  Fe69      1.0  0.12065  0.63887  0.45891  1.0000
  C   C573      1.0  0.08320  0.54603  0.27142  1.0000
  Fe  Fe70      1.0  0.14697  0.62199  0.42333  1.0000
  S   S131      1.0  0.15240  0.61606  0.38458  1.0000
  C   C574      1.0  0.45198  0.90747  0.39763  1.0000
  S   S132      1.0  0.17111  0.61705  0.45157  1.0000
  Fe  Fe71      1.0  0.09948  0.63483  0.26499  1.0000
  S   S133      1.0  0.08752  0.63234  0.30344  1.0000
  C   C575      1.0  0.13461  0.62129  0.36230  1.0000
  C   C576      1.0  0.13891  0.61785  0.33850  1.0000
  C   C577      1.0  0.12469  0.62128  0.32033  1.0000
  C   C578      1.0  0.10611  0.62833  0.32580  1.0000
  C   C579      1.0  0.10200  0.63206  0.34959  1.0000
  C   C580      1.0  0.11622  0.62861  0.36779  1.0000
  H   H992      1.0  0.15302  0.61209  0.33412  1.0000
  H   H993      1.0  0.12775  0.61795  0.30213  1.0000
  H   H994      1.0  0.08766  0.63751  0.35396  1.0000
  H   H995      1.0  0.11282  0.63140  0.38605  1.0000
  H   H996      1.0  0.28880  0.95441  0.27731  1.0000
  C   C581      1.0  0.27264  0.76777  0.48078  1.0000
  H   H997      1.0  0.30246  0.48118  0.46872  1.0000
  C   C582      1.0  0.45506  0.90015  0.42284  1.0000
  C   C583      1.0  0.25970  0.78051  0.47263  1.0000
  C   C584      1.0  0.03825  0.55685  0.49674  1.0000
  H   H998      1.0  0.97993  0.91986  0.48668  1.0000
  C   C585      1.0  0.23451  0.72509  0.47211  1.0000
  C   C586      1.0  0.22184  0.73783  0.46329  1.0000
  C   C587      1.0  0.23420  0.76522  0.46380  1.0000
  H   H999      1.0  0.31700  0.80244  0.45055  1.0000
  H   H1000     1.0  0.33728  0.78660  0.40731  1.0000
  H   H1001     1.0  0.20239  0.72649  0.45633  1.0000
  H   H1002     1.0  0.32728  0.88838  0.30766  1.0000
  H   H1003     1.0  0.03402  0.59362  0.42536  1.0000
  C   C588      1.0  0.04968  0.64304  0.48976  1.0000
  C   C589      1.0  0.36263  0.93760  0.29450  1.0000
  C   C590      1.0  0.34279  0.87678  0.37340  1.0000
  C   C591      1.0  0.33025  0.86667  0.35173  1.0000
  C   C592      1.0  0.34182  0.85890  0.33429  1.0000
  C   C593      1.0  0.36601  0.86103  0.33842  1.0000
  C   C594      1.0  0.37788  0.86977  0.36064  1.0000
  C   C595      1.0  0.36635  0.87765  0.37808  1.0000
  H   H1004     1.0  0.31173  0.86534  0.34827  1.0000
  H   H1005     1.0  0.33211  0.85141  0.31758  1.0000
  H   H1006     1.0  0.39643  0.87113  0.36413  1.0000
  H   H1007     1.0  0.37613  0.88527  0.39479  1.0000
  H   H1008     1.0  0.25205  0.70863  0.40047  1.0000
  H   H1009     1.0  0.08328  0.56464  0.27033  1.0000
  H   H1010     1.0  0.28385  0.84824  0.30854  1.0000
  C   C596      1.0  0.31933  0.90031  0.30058  1.0000
  H   H1011     1.0  0.04960  0.72628  0.46728  1.0000
  C   C597      1.0  0.05313  0.50765  0.44798  1.0000
  H   H1012     1.0  0.31163  0.77065  0.44462  1.0000
  C   C598      1.0  0.17221  0.71520  0.30283  1.0000
  S   S134      1.0  0.08993  0.65064  0.46113  1.0000
  S   S135      1.0  0.14350  0.63601  0.48924  1.0000
  H   H1013     1.0  0.00319  0.84307  0.45249  1.0000
  C   C599      1.0  0.98619  0.51065  0.47051  1.0000
  H   H1014     1.0  0.37034  0.94357  0.37495  1.0000
  H   H1015     1.0  0.17774  0.72191  0.28425  1.0000
  C   C600      1.0  0.22445  0.75457  0.31405  1.0000
  H   H1016     1.0  0.00476  0.51281  0.47683  1.0000
  H   H1017     1.0  0.37510  0.95895  0.29619  1.0000
  H   H1018     1.0  0.04239  0.52285  0.26424  1.0000
  H   H1019     1.0  0.09241  0.97129  0.25523  1.0000
  H   H1020     1.0  0.00469  0.54584  0.43083  1.0000
  H   H1021     1.0  0.07849  0.69548  0.46777  1.0000
  H   H1022     1.0  0.35826  0.52443  0.45931  1.0000
  C   C601      1.0  0.02707  0.57312  0.48601  1.0000
  H   H1023     1.0  0.00901  0.92440  0.26523  1.0000
  C   C602      1.0  0.32566  0.94478  0.29887  1.0000
  H   H1024     1.0  0.32029  0.48318  0.44310  1.0000
  H   H1025     1.0  0.41838  0.96633  0.49512  1.0000
  H   H1026     1.0  0.34434  0.95074  0.37846  1.0000
  H   H1027     1.0  0.16550  0.66640  0.29893  1.0000
  C   C603      1.0  0.18542  0.68301  0.29664  1.0000
  H   H1028     1.0  0.33043  0.80358  0.32974  1.0000
  N   N33       1.0  0.00770  0.56089  0.46610  1.0000
  C   C604      1.0  0.99835  0.57938  0.45925  1.0000
  H   H1029     1.0  0.98816  0.57363  0.44182  1.0000
  H   H1030     1.0  0.16279  0.67739  0.33743  1.0000
  S   S136      1.0  0.14005  0.64558  0.25547  1.0000
  H   H1031     1.0  0.03143  0.94253  0.47359  1.0000
  C   C605      1.0  0.14260  0.69585  0.30308  1.0000
  H   H1032     1.0  0.23140  0.72173  0.40828  1.0000
  H   H1033     1.0  0.18727  0.68878  0.27765  1.0000
  C   C606      1.0  0.31736  0.94197  0.27247  1.0000
  H   H1034     1.0  0.20106  0.66356  0.31902  1.0000
  H   H1035     1.0  0.46878  0.92650  0.39274  1.0000
  C   C607      1.0  0.46241  0.86422  0.45531  1.0000
  H   H1036     1.0  0.22540  0.72591  0.29250  1.0000
  H   H1037     1.0  0.04361  0.59193  0.48036  1.0000
  C   C608      1.0  0.36335  0.95705  0.36982  1.0000
  H   H1038     1.0  0.31870  0.89738  0.28117  1.0000
  C   C609      1.0  0.04159  0.58120  0.43217  1.0000
  H   H1039     1.0  0.13322  0.71493  0.27501  1.0000
  H   H1040     1.0  0.14009  0.70215  0.45700  1.0000
  H   H1041     1.0  0.22970  0.72196  0.32306  1.0000
  H   H1042     1.0  0.26189  0.76787  0.33106  1.0000
  C   C610      1.0  0.17113  0.70005  0.37924  1.0000
  H   H1043     1.0  0.13068  0.72503  0.30469  1.0000
  H   H1044     1.0  0.13562  0.68899  0.32126  1.0000
  C   C611      1.0  0.97333  0.85368  0.45624  1.0000
  H   H1045     1.0  0.22448  0.68689  0.29889  1.0000
  H   H1046     1.0  0.00152  0.69878  0.47468  1.0000
  C   C612      1.0  0.18234  0.69511  0.33714  1.0000
  C   C613      1.0  0.35102  0.79914  0.45257  1.0000
  H   H1047     1.0  0.42393  0.82663  0.48299  1.0000
  C   C614      1.0  0.05167  0.70994  0.47396  1.0000
  H   H1048     1.0  0.18118  0.68967  0.38556  1.0000
  H   H1049     1.0  0.30223  0.92187  0.26812  1.0000
  H   H1050     1.0  0.21161  0.64263  0.28676  1.0000
  C   C615      1.0  0.07379  0.64420  0.48827  1.0000
  C   C616      1.0  0.34029  0.48658  0.47630  1.0000
  C   C617      1.0  0.32424  0.78390  0.33660  1.0000
  S   S137      1.0  0.11169  0.56039  0.49748  1.0000
  H   H1051     1.0  0.98976  0.62113  0.46687  1.0000
  H   H1052     1.0  0.40867  0.49411  0.49568  1.0000
  H   H1053     1.0  0.46694  0.90768  0.47026  1.0000
  H   H1054     1.0  0.35527  0.97231  0.33867  1.0000
  C   C618      1.0  0.98449  0.53565  0.47381  1.0000
  H   H1055     1.0  0.29045  0.88805  0.32921  1.0000
  C   C619      1.0  0.97233  0.60154  0.46745  1.0000
  H   H1056     1.0  0.25046  0.78303  0.40484  1.0000
  H   H1057     1.0  0.98439  0.50546  0.45145  1.0000
  H   H1058     1.0  0.38040  0.96400  0.33548  1.0000
  H   H1059     1.0  0.03453  0.69137  0.46851  1.0000
  H   H1060     1.0  0.15017  0.68578  0.37687  1.0000
  H   H1061     1.0  0.35955  0.93405  0.27516  1.0000
  H   H1062     1.0  0.98857  0.58848  0.49442  1.0000
  H   H1063     1.0  0.31844  0.76403  0.36979  1.0000
  C   C620      1.0  0.05261  0.57400  0.41093  1.0000
  H   H1064     1.0  0.07239  0.70986  0.44240  1.0000
  H   H1065     1.0  0.45026  0.89251  0.38488  1.0000
  C   C621      1.0  0.12739  0.70835  0.29352  1.0000
  C   C622      1.0  0.29100  0.88787  0.30961  1.0000
  H   H1066     1.0  0.10211  0.54893  0.26494  1.0000
  H   H1067     1.0  0.41547  0.92696  0.29529  1.0000
  H   H1068     1.0  0.13764  0.67896  0.29167  1.0000
  N   N34       1.0  0.18945  0.70529  0.31224  1.0000
  H   H1069     1.0  0.06143  0.51863  0.46465  1.0000
  H   H1070     1.0  0.20318  0.72922  0.35970  1.0000
  H   H1071     1.0  0.27328  0.74345  0.36959  1.0000
  C   C623      1.0  0.18283  0.71412  0.35599  1.0000
  H   H1072     1.0  0.16757  0.73436  0.46124  1.0000
  C   C624      1.0  0.20379  0.67188  0.30102  1.0000
  S   S138      1.0  0.37176  0.82053  0.25211  1.0000
  H   H1073     1.0  0.98206  0.70210  0.49710  1.0000
  H   H1074     1.0  0.36487  0.82010  0.45008  1.0000
  C   C625      1.0  0.32562  0.78411  0.36360  1.0000
  C   C626      1.0  0.44122  0.82425  0.48122  1.0000
  H   H1075     1.0  0.06855  0.51571  0.43429  1.0000
  H   H1076     1.0  0.27331  0.75919  0.42170  1.0000
  H   H1077     1.0  0.17152  0.72337  0.35039  1.0000
  C   C627      1.0  0.25379  0.77273  0.31548  1.0000
  H   H1078     1.0  0.01484  0.87719  0.44908  1.0000
  H   H1079     1.0  0.27454  0.85846  0.28193  1.0000
  H   H1080     1.0  0.44449  0.86529  0.45856  1.0000
  H   H1081     1.0  0.10631  0.69390  0.29359  1.0000
  H   H1082     1.0  0.44323  0.81536  0.49775  1.0000
  H   H1083     1.0  0.30424  0.77033  0.33038  1.0000
  H   H1084     1.0  0.34644  0.79592  0.36863  1.0000
  H   H1085     1.0  0.17304  0.71417  0.39302  1.0000
  C   C628      1.0  0.21774  0.72607  0.31049  1.0000
  H   H1086     1.0  0.21720  0.76086  0.29872  1.0000
  H   H1087     1.0  0.21567  0.75717  0.33028  1.0000
  H   H1088     1.0  0.22967  0.70876  0.37908  1.0000
  H   H1089     1.0  0.06090  0.56175  0.41648  1.0000
  C   C629      1.0  0.31014  0.79606  0.37480  1.0000
  C   C630      1.0  0.28395  0.76146  0.40482  1.0000
  H   H1090     1.0  0.25368  0.75676  0.37880  1.0000
  H   H1091     1.0  0.32228  0.81741  0.37244  1.0000
  H   H1092     1.0  0.33745  0.77754  0.32919  1.0000
  H   H1093     1.0  0.02852  0.54434  0.44859  1.0000
  C   C631      1.0  0.26654  0.80192  0.39867  1.0000
  H   H1094     1.0  0.30719  0.82743  0.40659  1.0000
  H   H1095     1.0  0.29443  0.75051  0.40757  1.0000
  C   C632      1.0  0.35282  0.51600  0.47731  1.0000
  C   C633      1.0  0.26368  0.74647  0.38509  1.0000
  C   C634      1.0  0.32479  0.79154  0.44116  1.0000
  H   H1096     1.0  0.26338  0.77124  0.29916  1.0000
  H   H1097     1.0  0.28900  0.80433  0.42870  1.0000
  Fe  Fe72      1.0  0.37232  0.88541  0.46892  1.0000
  H   H1098     1.0  0.44260  0.63591  0.46690  1.0000
  H   H1099     1.0  0.26698  0.80235  0.37910  1.0000
  H   H1100     1.0  0.09306  0.73027  0.46585  1.0000
  H   H1101     1.0  0.25904  0.82288  0.42636  1.0000
  H   H1102     1.0  0.29274  0.79049  0.36376  1.0000
  H   H1103     1.0  0.27555  0.84212  0.40073  1.0000
  H   H1104     1.0  0.34200  0.81819  0.41154  1.0000
  H   H1105     1.0  0.19569  0.68854  0.34380  1.0000
  C   C635      1.0  0.26033  0.82269  0.40678  1.0000
  H   H1106     1.0  0.11708  0.51787  0.47586  1.0000
  H   H1107     1.0  0.17793  0.63393  0.28563  1.0000
  C   C636      1.0  0.00134  0.85958  0.45916  1.0000
  C   C637      1.0  0.01995  0.55662  0.44445  1.0000
  H   H1108     1.0  0.24141  0.81868  0.39924  1.0000
  H   H1109     1.0  0.17502  0.73244  0.31274  1.0000
  C   C638      1.0  0.24298  0.71981  0.39382  1.0000
  H   H1110     1.0  0.25809  0.79304  0.31730  1.0000
  H   H1111     1.0  0.35938  0.78777  0.44484  1.0000
  H   H1112     1.0  0.05777  0.59279  0.44453  1.0000
  C   C639      1.0  0.97961  0.58194  0.47673  1.0000
  C   C640      1.0  0.32774  0.79725  0.41415  1.0000
  N   N35       1.0  0.33701  0.92835  0.30684  1.0000
  H   H1113     1.0  0.03730  0.56350  0.39739  1.0000
  C   C641      1.0  0.34042  0.93066  0.33334  1.0000
  H   H1114     1.0  0.30862  0.94093  0.30992  1.0000
  H   H1115     1.0  0.37353  0.84157  0.49399  1.0000
  H   H1116     1.0  0.13561  0.72986  0.45684  1.0000
  C   C642      1.0  0.37855  0.92466  0.30236  1.0000
  H   H1117     1.0  0.05333  0.78507  0.48753  1.0000
  H   H1118     1.0  0.03682  0.51026  0.44195  1.0000
  C   C643      1.0  0.41280  0.87281  0.49839  1.0000
  C   C644      1.0  0.40492  0.93722  0.29009  1.0000
  H   H1119     1.0  0.04687  0.55013  0.48307  1.0000
  H   H1120     1.0  0.28115  0.89818  0.30276  1.0000
  H   H1121     1.0  0.32180  0.92579  0.34212  1.0000
  H   H1122     1.0  0.34538  0.91623  0.34025  1.0000
  C   C645      1.0  0.27520  0.85968  0.30155  1.0000
  H   H1123     1.0  0.01517  0.59927  0.45692  1.0000
  H   H1124     1.0  0.25501  0.85106  0.30823  1.0000
  H   H1125     1.0  0.43338  0.63980  0.49649  1.0000
  C   C646      1.0  0.46569  0.85041  0.47725  1.0000
  H   H1126     1.0  0.04124  0.64642  0.47416  1.0000
  H   H1127     1.0  0.36822  0.90383  0.29755  1.0000
  H   H1128     1.0  0.38221  0.92635  0.32168  1.0000
  S   S139      1.0  0.34500  0.87930  0.49862  1.0000
  S   S140      1.0  0.41192  0.89060  0.47426  1.0000
  H   H1129     1.0  0.97256  0.87629  0.48501  1.0000
  H   H1130     1.0  0.08111  0.54022  0.29029  1.0000
  H   H1131     1.0  0.33416  0.94745  0.26069  1.0000
  C   C647      1.0  0.10468  0.51017  0.49117  1.0000
  H   H1132     1.0  0.45581  0.91526  0.43482  1.0000
  H   H1133     1.0  0.27029  0.73092  0.48744  1.0000
  H   H1134     1.0  0.05143  0.96734  0.26385  1.0000
  C   C648      1.0  0.29253  0.80666  0.40940  1.0000
  H   H1135     1.0  0.06835  0.59187  0.40270  1.0000
  N   N36       1.0  0.30301  0.78976  0.40052  1.0000
  H   H1136     1.0  0.00707  0.86259  0.47809  1.0000
  C   C649      1.0  0.14212  0.71903  0.49176  1.0000
  C   C650      1.0  0.14668  0.72143  0.46509  1.0000
  H   H1137     1.0  0.20086  0.65737  0.26501  1.0000
  C   C651      1.0  0.07539  0.71150  0.46186  1.0000
  H   H1138     1.0  0.44493  0.51159  0.25182  1.0000
  H   H1139     1.0  0.43571  0.95053  0.48444  1.0000
  H   H1140     1.0  0.43733  0.88153  0.42686  1.0000
  C   C652      1.0  0.36090  0.95762  0.34294  1.0000
  H   H1141     1.0  0.98670  0.89477  0.45924  1.0000
  H   H1142     1.0  0.22382  0.77466  0.45751  1.0000
  C   C653      1.0  0.09478  0.48391  0.49775  1.0000
  H   H1143     1.0  0.43404  0.90885  0.39640  1.0000
  H   H1144     1.0  0.97975  0.53704  0.49265  1.0000
  H   H1145     1.0  0.43809  0.81093  0.46626  1.0000
  C   C654      1.0  0.04648  0.95365  0.48639  1.0000
  H   H1146     1.0  0.41677  0.95785  0.29536  1.0000
  H   H1147     1.0  0.33938  0.52168  0.48542  1.0000
  S   S141      1.0  0.32867  0.83788  0.26725  1.0000
  S   S142      1.0  0.38896  0.88200  0.25274  1.0000
  C   C655      1.0  0.30628  0.95954  0.26648  1.0000
  C   C656      1.0  0.43293  0.96050  0.49981  1.0000
  H   H1148     1.0  0.35492  0.48215  0.46896  1.0000
  H   H1149     1.0  0.06052  0.50668  0.26014  1.0000
  H   H1150     1.0  0.29198  0.77896  0.48809  1.0000
  H   H1151     1.0  0.37070  0.52412  0.48834  1.0000
  H   H1152     1.0  0.40239  0.93589  0.27058  1.0000
  H   H1153     1.0  0.12078  0.70843  0.49466  1.0000
  H   H1154     1.0  0.01826  0.57799  0.50104  1.0000
  C   C657      1.0  0.99047  0.69008  0.49106  1.0000
  H   H1155     1.0  0.37751  0.97666  0.37645  1.0000
  H   H1156     1.0  0.02830  0.73746  0.49110  1.0000
  H   H1157     1.0  0.45795  0.85090  0.43995  1.0000
  H   H1158     1.0  0.17271  0.70925  0.49454  1.0000
  C   C658      1.0  0.06076  0.52507  0.25699  1.0000
  H   H1159     1.0  0.97541  0.65144  0.47655  1.0000
  H   H1160     1.0  0.46936  0.86215  0.49345  1.0000
  H   H1161     1.0  0.44024  0.61424  0.49015  1.0000
  H   H1162     1.0  0.14127  0.68328  0.49924  1.0000
  H   H1163     1.0  0.15018  0.73875  0.49927  1.0000
  H   H1164     1.0  0.47113  0.68545  0.49962  1.0000
  H   H1165     1.0  0.33600  0.47940  0.49472  1.0000
  C   C659      1.0  0.05468  0.71080  0.50115  1.0000
  Fe  Fe73      1.0  0.00173  0.81880  0.55603  1.0000
  C   C660      1.0  0.98242  0.79510  0.67724  1.0000
  S   S143      1.0  0.01135  0.78586  0.55960  1.0000
  Fe  Fe74      1.0  0.01279  0.87413  0.53843  1.0000
  S   S144      1.0  0.98235  0.87241  0.56311  1.0000
  H   H1166     1.0  0.42203  0.73167  0.58385  1.0000
  Fe  Fe75      1.0  0.99794  0.85625  0.59032  1.0000
  S   S145      1.0  0.00688  0.86957  0.62852  1.0000
  C   C661      1.0  0.00764  0.68851  0.51107  1.0000
  H   H1167     1.0  0.39936  0.66153  0.65568  1.0000
  S   S146      1.0  0.03030  0.86033  0.56671  1.0000
  S   S147      1.0  0.98756  0.83276  0.52538  1.0000
  S   S148      1.0  0.02435  0.63446  0.71289  1.0000
  Fe  Fe76      1.0  0.42485  0.56438  0.55618  1.0000
  H   H1168     1.0  0.98637  0.73089  0.64602  1.0000
  S   S149      1.0  0.40713  0.52687  0.53281  1.0000
  Fe  Fe77      1.0  0.44452  0.62455  0.56138  1.0000
  C   C662      1.0  0.08456  0.63975  0.50840  1.0000
  S   S150      1.0  0.44093  0.65925  0.54805  1.0000
  H   H1169     1.0  0.23863  0.78511  0.51816  1.0000
  S   S151      1.0  0.03182  0.62585  0.55891  1.0000
  Fe  Fe78      1.0  0.44029  0.59297  0.60484  1.0000
  S   S152      1.0  0.43153  0.58873  0.64419  1.0000
  H   H1170     1.0  0.99761  0.81563  0.67978  1.0000
  S   S153      1.0  0.41092  0.58802  0.57680  1.0000
  S   S154      1.0  0.42794  0.81420  0.71328  1.0000
  C   C663      1.0  0.04727  0.63266  0.53147  1.0000
  H   H1171     1.0  0.07831  0.52789  0.53531  1.0000
  H   H1172     1.0  0.43419  0.68136  0.65415  1.0000
  H   H1173     1.0  0.19476  0.75519  0.50375  1.0000
  H   H1174     1.0  0.05230  0.58012  0.52891  1.0000
  H   H1175     1.0  0.21034  0.73807  0.51409  1.0000
  C   C664      1.0  0.99987  0.61948  0.69103  1.0000
  S   S155      1.0  0.97576  0.63310  0.58469  1.0000
  H   H1176     1.0  0.00528  0.89727  0.74162  1.0000
  H   H1177     1.0  0.07425  0.72701  0.50585  1.0000
  N   N37       1.0  0.00449  0.78511  0.64227  1.0000
  C   C665      1.0  0.00566  0.62720  0.66733  1.0000
  S   S156      1.0  0.45575  0.60072  0.53827  1.0000
  H   H1178     1.0  0.02839  0.71802  0.55192  1.0000
  H   H1179     1.0  0.04238  0.67329  0.58572  1.0000
  H   H1180     1.0  0.02514  0.64189  0.66259  1.0000
  H   H1181     1.0  0.02280  0.54006  0.50639  1.0000
  C   C666      1.0  0.38024  0.95956  0.61523  1.0000
  H   H1182     1.0  0.99199  0.70597  0.71225  1.0000
  H   H1183     1.0  0.12718  0.71654  0.53516  1.0000
  H   H1184     1.0  0.03899  0.81878  0.65553  1.0000
  C   C667      1.0  0.04216  0.69053  0.57858  1.0000
  C   C668      1.0  0.97470  0.60025  0.69690  1.0000
  C   C669      1.0  0.98991  0.75161  0.55773  1.0000
  H   H1185     1.0  0.44611  0.71409  0.71922  1.0000
  C   C670      1.0  0.39155  0.48213  0.50607  1.0000
  C   C671      1.0  0.45274  0.82825  0.69183  1.0000
  C   C672      1.0  0.98182  0.70776  0.56651  1.0000
  C   C673      1.0  0.99695  0.73497  0.56903  1.0000
  H   H1186     1.0  0.23127  0.76997  0.54675  1.0000
  H   H1187     1.0  0.43215  0.70126  0.53623  1.0000
  H   H1188     1.0  0.98756  0.69529  0.57529  1.0000
  H   H1189     1.0  0.01460  0.74325  0.57938  1.0000
  C   C674      1.0  0.46530  0.73679  0.54843  1.0000
  H   H1190     1.0  0.45364  0.52197  0.52927  1.0000
  H   H1191     1.0  0.99540  0.68368  0.52723  1.0000
  H   H1192     1.0  0.01006  0.95466  0.57084  1.0000
  C   C675      1.0  0.01859  0.69295  0.70347  1.0000
  H   H1193     1.0  0.45659  0.78031  0.63294  1.0000
  C   C676      1.0  0.41795  0.84141  0.53210  1.0000
  N   N38       1.0  0.15797  0.70750  0.53014  1.0000
  H   H1194     1.0  0.46115  0.52100  0.66742  1.0000
  C   C677      1.0  0.43851  0.86629  0.52790  1.0000
  H   H1195     1.0  0.44797  0.88682  0.59393  1.0000
  H   H1196     1.0  0.44556  0.48055  0.58755  1.0000
  C   C678      1.0  0.04092  0.71322  0.54111  1.0000
  H   H1197     1.0  0.36285  0.94769  0.62628  1.0000
  C   C679      1.0  0.43205  0.67779  0.73957  1.0000
  C   C680      1.0  0.18921  0.68875  0.53041  1.0000
  C   C681      1.0  0.44698  0.81988  0.66825  1.0000
  C   C682      1.0  0.01796  0.77006  0.63576  1.0000
  H   H1198     1.0  0.01233  0.87723  0.67871  1.0000
  C   C683      1.0  0.46615  0.83089  0.65066  1.0000
  H   H1199     1.0  0.42762  0.80471  0.66365  1.0000
  S   S157      1.0  0.35759  0.94734  0.51141  1.0000
  H   H1200     1.0  0.05508  0.68560  0.54453  1.0000
  H   H1201     1.0  0.98446  0.95083  0.55098  1.0000
  C   C684      1.0  0.22284  0.77447  0.53115  1.0000
  C   C685      1.0  0.00772  0.74302  0.64723  1.0000
  H   H1202     1.0  0.42999  0.51124  0.59225  1.0000
  H   H1203     1.0  0.45678  0.87318  0.53691  1.0000
  H   H1204     1.0  0.07656  0.58873  0.50589  1.0000
  H   H1205     1.0  0.07169  0.80387  0.51273  1.0000
  H   H1206     1.0  0.45186  0.90129  0.50811  1.0000
  H   H1207     1.0  0.45562  0.76979  0.72226  1.0000
  C   C686      1.0  0.19205  0.66629  0.53990  1.0000
  H   H1208     1.0  0.01749  0.63558  0.51240  1.0000
  H   H1209     1.0  0.41119  0.66673  0.73478  1.0000
  C   C687      1.0  0.05721  0.76263  0.51613  1.0000
  H   H1210     1.0  0.06048  0.70809  0.58383  1.0000
  C   C688      1.0  0.45712  0.60215  0.66512  1.0000
  H   H1211     1.0  0.02074  0.68003  0.69064  1.0000
  H   H1212     1.0  0.00982  0.67130  0.50773  1.0000
  H   H1213     1.0  0.08832  0.68061  0.56938  1.0000
  C   C689      1.0  0.45193  0.59430  0.68883  1.0000
  H   H1214     1.0  0.07124  0.85805  0.60235  1.0000
  H   H1215     1.0  0.99127  0.78437  0.60656  1.0000
  H   H1216     1.0  0.37805  0.81367  0.52411  1.0000
  H   H1217     1.0  0.40220  0.64884  0.69651  1.0000
  H   H1218     1.0  0.20983  0.66736  0.53238  1.0000
  C   C690      1.0  0.44104  0.70702  0.73763  1.0000
  C   C691      1.0  0.98324  0.77987  0.62475  1.0000
  C   C692      1.0  0.17848  0.73461  0.53722  1.0000
  C   C693      1.0  0.05960  0.57251  0.51475  1.0000
  C   C694      1.0  0.44533  0.67073  0.69914  1.0000
  H   H1219     1.0  0.97963  0.75848  0.66937  1.0000
  H   H1220     1.0  0.39685  0.50185  0.58547  1.0000
  C   C695      1.0  0.98434  0.85484  0.65174  1.0000
  H   H1221     1.0  0.40404  0.48892  0.61135  1.0000
  H   H1222     1.0  0.20667  0.70681  0.53624  1.0000
  H   H1223     1.0  0.46011  0.69032  0.69291  1.0000
  C   C696      1.0  0.01964  0.72825  0.63551  1.0000
  H   H1224     1.0  0.45132  0.63426  0.72450  1.0000
  H   H1225     1.0  0.45948  0.51970  0.63538  1.0000
  H   H1226     1.0  0.02045  0.68710  0.72171  1.0000
  C   C697      1.0  0.00166  0.93183  0.74425  1.0000
  H   H1227     1.0  0.45956  0.74772  0.68575  1.0000
  C   C698      1.0  0.03905  0.82349  0.61736  1.0000
  H   H1228     1.0  0.06114  0.72903  0.54451  1.0000
  H   H1229     1.0  0.03688  0.78463  0.51455  1.0000
  H   H1230     1.0  0.14776  0.66780  0.53652  1.0000
  H   H1231     1.0  0.01357  0.70982  0.64497  1.0000
  H   H1232     1.0  0.07597  0.85243  0.63279  1.0000
  C   C699      1.0  0.99240  0.86267  0.67515  1.0000
  C   C700      1.0  0.20147  0.74961  0.51987  1.0000
  H   H1233     1.0  0.03456  0.71304  0.70049  1.0000
  H   H1234     1.0  0.01501  0.82559  0.64427  1.0000
  C   C701      1.0  0.13056  0.70045  0.56810  1.0000
  C   C702      1.0  0.16434  0.68770  0.53982  1.0000
  C   C703      1.0  0.13228  0.70173  0.54071  1.0000
  H   H1235     1.0  0.01623  0.73596  0.51988  1.0000
  H   H1236     1.0  0.06624  0.55998  0.52309  1.0000
  C   C704      1.0  0.39410  0.83285  0.52065  1.0000
  H   H1237     1.0  0.16974  0.74720  0.53971  1.0000
  C   C705      1.0  0.45040  0.70961  0.54572  1.0000
  H   H1238     1.0  0.44376  0.74902  0.64559  1.0000
  H   H1239     1.0  0.41188  0.72566  0.61429  1.0000
  H   H1240     1.0  0.43231  0.58045  0.69404  1.0000
  C   C706      1.0  0.09910  0.52656  0.50464  1.0000
  H   H1241     1.0  0.01786  0.76772  0.61618  1.0000
  H   H1242     1.0  0.07098  0.94684  0.53844  1.0000
  H   H1243     1.0  0.05418  0.86437  0.62529  1.0000
  C   C707      1.0  0.02364  0.97891  0.53938  1.0000
  C   C708      1.0  0.44482  0.88824  0.61311  1.0000
  H   H1244     1.0  0.42776  0.73388  0.74699  1.0000
  Fe  Fe79      1.0  0.98930  0.61294  0.55996  1.0000
  C   C709      1.0  0.99239  0.69152  0.70014  1.0000
  H   H1245     1.0  0.42138  0.75679  0.60098  1.0000
  C   C710      1.0  0.41902  0.66639  0.68932  1.0000
  C   C711      1.0  0.10523  0.69842  0.57658  1.0000
  C   C712      1.0  0.41800  0.66387  0.66238  1.0000
  H   H1246     1.0  0.01060  0.78244  0.67954  1.0000
  C   C713      1.0  0.99446  0.77915  0.66733  1.0000
  H   H1247     1.0  0.10432  0.69728  0.59619  1.0000
  C   C714      1.0  0.03271  0.73648  0.50998  1.0000
  H   H1248     1.0  0.04732  0.81153  0.61103  1.0000
  H   H1249     1.0  0.17516  0.64742  0.53467  1.0000
  H   H1250     1.0  0.19383  0.66727  0.55948  1.0000
  C   C715      1.0  0.00447  0.95394  0.55198  1.0000
  H   H1251     1.0  0.14701  0.71789  0.57623  1.0000
  H   H1252     1.0  0.98610  0.90064  0.71866  1.0000
  H   H1253     1.0  0.02572  0.82332  0.60353  1.0000
  H   H1254     1.0  0.16715  0.68972  0.55930  1.0000
  C   C716      1.0  0.02432  0.81363  0.64115  1.0000
  H   H1255     1.0  0.39805  0.96466  0.62563  1.0000
  S   S158      1.0  0.42253  0.82059  0.55062  1.0000
  H   H1256     1.0  0.04118  0.73985  0.63594  1.0000
  N   N39       1.0  0.41927  0.86566  0.62110  1.0000
  C   C717      1.0  0.39780  0.86768  0.60868  1.0000
  C   C718      1.0  0.41755  0.86770  0.64770  1.0000
  H   H1257     1.0  0.04304  0.95508  0.74817  1.0000
  C   C719      1.0  0.41914  0.84112  0.61456  1.0000
  C   C720      1.0  0.39452  0.81552  0.62117  1.0000
  C   C721      1.0  0.39690  0.86519  0.58128  1.0000
  H   H1258     1.0  0.35864  0.48510  0.55379  1.0000
  C   C722      1.0  0.39015  0.85687  0.65870  1.0000
  C   C723      1.0  0.39128  0.85547  0.68564  1.0000
  C   C724      1.0  0.39588  0.79216  0.61186  1.0000
  C   C725      1.0  0.37486  0.86826  0.57080  1.0000
  C   C726      1.0  0.47045  0.53958  0.53681  1.0000
  H   H1259     1.0  0.39907  0.88646  0.61327  1.0000
  H   H1260     1.0  0.37842  0.85255  0.61483  1.0000
  H   H1261     1.0  0.42736  0.85829  0.65685  1.0000
  H   H1262     1.0  0.42839  0.88833  0.65350  1.0000
  Fe  Fe80      1.0  0.46492  0.83571  0.55738  1.0000
  C   C727      1.0  0.41094  0.62014  0.72647  1.0000
  H   H1263     1.0  0.42313  0.84087  0.59543  1.0000
  H   H1264     1.0  0.43535  0.84049  0.62343  1.0000
  H   H1265     1.0  0.37675  0.81453  0.61378  1.0000
  H   H1266     1.0  0.39291  0.81353  0.64068  1.0000
  H   H1267     1.0  0.41509  0.88014  0.57296  1.0000
  H   H1268     1.0  0.39343  0.84582  0.57590  1.0000
  H   H1269     1.0  0.10295  0.64042  0.50745  1.0000
  C   C728      1.0  0.98638  0.61603  0.64968  1.0000
  H   H1270     1.0  0.38232  0.86984  0.65429  1.0000
  H   H1271     1.0  0.37616  0.83728  0.65216  1.0000
  H   H1272     1.0  0.37164  0.84842  0.69317  1.0000
  H   H1273     1.0  0.39803  0.84183  0.69095  1.0000
  H   H1274     1.0  0.40466  0.87485  0.69324  1.0000
  H   H1275     1.0  0.41376  0.79255  0.61828  1.0000
  H   H1276     1.0  0.37878  0.77406  0.61814  1.0000
  H   H1277     1.0  0.39569  0.79193  0.59225  1.0000
  H   H1278     1.0  0.37474  0.86632  0.55123  1.0000
  H   H1279     1.0  0.35579  0.85305  0.57763  1.0000
  H   H1280     1.0  0.37757  0.88764  0.57505  1.0000
  H   H1281     1.0  0.01315  0.74536  0.66626  1.0000
  H   H1282     1.0  0.40920  0.61668  0.70707  1.0000
  H   H1283     1.0  0.02050  0.67078  0.54769  1.0000
  H   H1284     1.0  0.13064  0.68297  0.57473  1.0000
  C   C729      1.0  0.07154  0.63440  0.53002  1.0000
  C   C730      1.0  0.06146  0.85127  0.61970  1.0000
  H   H1285     1.0  0.41638  0.68303  0.69387  1.0000
  H   H1286     1.0  0.99115  0.62209  0.63151  1.0000
  H   H1287     1.0  0.40288  0.70376  0.73458  1.0000
  C   C731      1.0  0.43899  0.64115  0.73278  1.0000
  C   C732      1.0  0.04881  0.94113  0.50666  1.0000
  H   H1288     1.0  0.18874  0.68742  0.51098  1.0000
  C   C733      1.0  0.42546  0.74055  0.60173  1.0000
  C   C734      1.0  0.46961  0.89125  0.62548  1.0000
  C   C735      1.0  0.06867  0.95597  0.52283  1.0000
  C   C736      1.0  0.38577  0.49323  0.52554  1.0000
  H   H1289     1.0  0.08008  0.63105  0.54559  1.0000
  H   H1290     1.0  0.18675  0.73431  0.55484  1.0000
  H   H1291     1.0  0.03889  0.78111  0.64085  1.0000
  H   H1292     1.0  0.10402  0.71563  0.57098  1.0000
  C   C737      1.0  0.08280  0.51570  0.52451  1.0000
  H   H1293     1.0  0.41801  0.51050  0.65336  1.0000
  C   C738      1.0  0.45915  0.69319  0.55458  1.0000
  H   H1294     1.0  0.02555  0.69129  0.58667  1.0000
  C   C739      1.0  0.00377  0.91133  0.72979  1.0000
  H   H1295     1.0  0.01296  0.72349  0.61691  1.0000
  H   H1296     1.0  0.00471  0.93724  0.54349  1.0000
  C   C740      1.0  0.03623  0.63690  0.51131  1.0000
  N   N40       1.0  0.03397  0.71227  0.51528  1.0000
  H   H1297     1.0  0.37963  0.94784  0.59970  1.0000
  H   H1298     1.0  0.46168  0.82404  0.63267  1.0000
  H   H1299     1.0  0.98388  0.78431  0.71394  1.0000
  C   C741      1.0  0.07263  0.48933  0.53092  1.0000
  H   H1300     1.0  0.44830  0.77022  0.68022  1.0000
  S   S159      1.0  0.45173  0.56717  0.58574  1.0000
  H   H1301     1.0  0.45848  0.74902  0.54093  1.0000
  H   H1302     1.0  0.41790  0.58797  0.73317  1.0000
  H   H1303     1.0  0.21514  0.78725  0.53659  1.0000
  H   H1304     1.0  0.41923  0.64659  0.65692  1.0000
  H   H1305     1.0  0.44459  0.90668  0.61554  1.0000
  C   C742      1.0  0.45944  0.76323  0.63396  1.0000
  H   H1306     1.0  0.05993  0.76496  0.53560  1.0000
  H   H1307     1.0  0.97700  0.90983  0.60848  1.0000
  H   H1308     1.0  0.99151  0.69755  0.68192  1.0000
  H   H1309     1.0  0.39644  0.62544  0.73234  1.0000
  H   H1310     1.0  0.07488  0.76415  0.50805  1.0000
  H   H1311     1.0  0.01912  0.97615  0.52019  1.0000
  C   C743      1.0  0.42008  0.71268  0.74646  1.0000
  C   C744      1.0  0.43431  0.53070  0.65203  1.0000
  C   C745      1.0  0.03927  0.68840  0.55165  1.0000
  H   H1312     1.0  0.11642  0.68298  0.53387  1.0000
  S   S160      1.0  0.02664  0.90705  0.51049  1.0000
  N   N41       1.0  0.44756  0.66863  0.72556  1.0000
  C   C746      1.0  0.40971  0.49494  0.59274  1.0000
  H   H1313     1.0  0.99937  0.94475  0.73161  1.0000
  C   C747      1.0  0.15425  0.70405  0.50368  1.0000
  C   C748      1.0  0.46010  0.53092  0.65126  1.0000
  H   H1314     1.0  0.43156  0.53943  0.63572  1.0000
  H   H1315     1.0  0.43357  0.54161  0.66767  1.0000
  H   H1316     1.0  0.98128  0.85772  0.71201  1.0000
  C   C749      1.0  0.45363  0.75037  0.60907  1.0000
  H   H1317     1.0  0.97543  0.79314  0.62778  1.0000
  C   C750      1.0  0.46543  0.76852  0.68551  1.0000
  H   H1318     1.0  0.46565  0.55532  0.53720  1.0000
  H   H1319     1.0  0.38421  0.57934  0.73302  1.0000
  H   H1320     1.0  0.45706  0.73372  0.60860  1.0000
  H   H1321     1.0  0.02096  0.92037  0.71801  1.0000
  C   C751      1.0  0.05454  0.78536  0.50714  1.0000
  H   H1322     1.0  0.46590  0.76437  0.59541  1.0000
  C   C752      1.0  0.43586  0.88206  0.51123  1.0000
  H   H1323     1.0  0.05958  0.50751  0.74000  1.0000
  H   H1324     1.0  0.46795  0.89008  0.64501  1.0000
  C   C753      1.0  0.39153  0.84859  0.50367  1.0000
  H   H1325     1.0  0.42501  0.94653  0.51467  1.0000
  H   H1326     1.0  0.36298  0.97773  0.59546  1.0000
  C   C754      1.0  0.97483  0.85179  0.69403  1.0000
  H   H1327     1.0  0.45850  0.71837  0.74884  1.0000
  C   C755      1.0  0.40405  0.59447  0.73837  1.0000
  H   H1328     1.0  0.46796  0.59673  0.72376  1.0000
  H   H1329     1.0  0.45004  0.65701  0.68992  1.0000
  H   H1330     1.0  0.46929  0.72960  0.64918  1.0000
  H   H1331     1.0  0.05533  0.69305  0.50590  1.0000
  H   H1332     1.0  0.97410  0.64965  0.69767  1.0000
  H   H1333     1.0  0.97281  0.66653  0.65482  1.0000
  H   H1334     1.0  0.06051  0.48172  0.54640  1.0000
  Fe  Fe81      1.0  0.33697  0.93357  0.88062  1.0000
  S   S161      1.0  0.36373  0.95854  0.90981  1.0000
  S   S162      1.0  0.35377  0.91626  0.85325  1.0000
  Fe  Fe82      1.0  0.29596  0.95157  0.89294  1.0000
  H   H1335     1.0  0.19936  0.92469  0.82402  1.0000
  S   S163      1.0  0.25407  0.94540  0.89133  1.0000
  C   C756      1.0  0.11572  0.90151  0.88274  1.0000
  S   S164      1.0  0.38048  0.53749  0.89531  1.0000
  Fe  Fe83      1.0  0.32817  0.94550  0.93228  1.0000
  S   S165      1.0  0.32354  0.93503  0.97137  1.0000
  H   H1336     1.0  0.28736  0.51014  0.97953  1.0000
  S   S166      1.0  0.30136  0.91798  0.90436  1.0000
  H   H1337     1.0  0.16735  0.91488  0.86938  1.0000
  S   S167      1.0  0.99180  0.62738  0.81600  1.0000
  C   C757      1.0  0.19268  0.91628  0.84188  1.0000
  H   H1338     1.0  0.29586  0.50352  0.86503  1.0000
  S   S168      1.0  0.03927  0.65679  0.77967  1.0000
  Fe  Fe84      1.0  0.02401  0.62093  0.80266  1.0000
  S   S169      1.0  0.04492  0.61084  0.83201  1.0000
  Fe  Fe85      1.0  0.00459  0.66057  0.79065  1.0000
  S   S170      1.0  0.00841  0.70013  0.79966  1.0000
  S   S171      1.0  0.99983  0.59395  0.77335  1.0000
  C   C758      1.0  0.44969  0.71159  0.80765  1.0000
  Fe  Fe86      1.0  0.15677  0.51045  0.89527  1.0000
  C   C759      1.0  0.26671  0.49626  0.97526  1.0000
  S   S172      1.0  0.19835  0.51629  0.89699  1.0000
  Fe  Fe87      1.0  0.11796  0.52963  0.87867  1.0000
  S   S173      1.0  0.08889  0.50566  0.90646  1.0000
  S   S174      1.0  0.10633  0.54827  0.84838  1.0000
  Fe  Fe88      1.0  0.12271  0.51792  0.93124  1.0000
  S   S175      1.0  0.12396  0.52861  0.96992  1.0000
  H   H1339     1.0  0.02451  0.91072  0.93756  1.0000
  S   S176      1.0  0.06684  0.92671  0.89057  1.0000
  S   S177      1.0  0.15179  0.54479  0.90452  1.0000
  S   S178      1.0  0.12574  0.49767  0.86692  1.0000
  H   H1340     1.0  0.20976  0.92480  0.85391  1.0000
  S   S179      1.0  0.40954  0.79393  0.77972  1.0000
  H   H1341     1.0  0.10025  0.68048  0.88326  1.0000
  S   S180      1.0  0.45406  0.82436  0.81914  1.0000
  S   S181      1.0  0.02449  0.88655  0.78769  1.0000
  Fe  Fe89      1.0  0.44350  0.79095  0.79407  1.0000
  S   S182      1.0  0.43828  0.75112  0.80416  1.0000
  Fe  Fe90      1.0  0.42241  0.82982  0.80240  1.0000
  S   S183      1.0  0.39704  0.83823  0.82841  1.0000
  H   H1342     1.0  0.11309  0.92297  0.91275  1.0000
  S   S184      1.0  0.44842  0.85626  0.77377  1.0000
  C   C760      1.0  0.05443  0.91621  0.86204  1.0000
  C   C761      1.0  0.06404  0.93282  0.84263  1.0000
  C   C762      1.0  0.05511  0.92340  0.81978  1.0000
  C   C763      1.0  0.03548  0.89775  0.81642  1.0000
  C   C764      1.0  0.02552  0.88127  0.83588  1.0000
  C   C765      1.0  0.03530  0.89040  0.85860  1.0000
  H   H1343     1.0  0.07869  0.95273  0.84507  1.0000
  H   H1344     1.0  0.06346  0.93592  0.80468  1.0000
  H   H1345     1.0  0.01106  0.86121  0.83335  1.0000
  H   H1346     1.0  0.02826  0.87733  0.87350  1.0000
  H   H1347     1.0  0.14533  0.93988  0.87164  1.0000
  H   H1348     1.0  0.16173  0.71861  0.82247  1.0000
  H   H1349     1.0  0.97676  0.88965  0.91462  1.0000
  H   H1350     1.0  0.19826  0.54960  0.93523  1.0000
  C   C766      1.0  0.20633  0.51902  0.96748  1.0000
  H   H1351     1.0  0.33612  0.57946  0.91718  1.0000
  S   S185      1.0  0.32004  0.48325  0.92577  1.0000
  H   H1352     1.0  0.99656  0.94421  0.86123  1.0000
  C   C767      1.0  0.99964  0.74160  0.80109  1.0000
  H   H1353     1.0  0.44132  0.64038  0.75226  1.0000
  H   H1354     1.0  0.43059  0.70072  0.81542  1.0000
  C   C768      1.0  0.45323  0.52434  0.82414  1.0000
  H   H1355     1.0  0.02007  0.75283  0.80545  1.0000
  C   C769      1.0  0.06034  0.59174  0.83623  1.0000
  C   C770      1.0  0.06893  0.58998  0.85908  1.0000
  C   C771      1.0  0.08237  0.57631  0.86329  1.0000
  C   C772      1.0  0.08772  0.56426  0.84462  1.0000
  C   C773      1.0  0.07895  0.56583  0.82179  1.0000
  C   C774      1.0  0.06530  0.57932  0.81761  1.0000
  H   H1356     1.0  0.06518  0.59930  0.87373  1.0000
  H   H1357     1.0  0.08893  0.57545  0.88095  1.0000
  H   H1358     1.0  0.08297  0.55672  0.80712  1.0000
  H   H1359     1.0  0.05904  0.58049  0.79991  1.0000
  H   H1360     1.0  0.45962  0.53071  0.80571  1.0000
  C   C775      1.0  0.46137  0.92660  0.83253  1.0000
  C   C776      1.0  0.23760  0.50513  0.90580  1.0000
  C   C777      1.0  0.09630  0.88789  0.80651  1.0000
  Fe  Fe91      1.0  0.01248  0.62977  0.75142  1.0000
  C   C778      1.0  0.21406  0.95588  0.89890  1.0000
  H   H1361     1.0  0.45867  0.68081  0.81250  1.0000
  H   H1362     1.0  0.24750  0.52406  0.91396  1.0000
  C   C779      1.0  0.30724  0.51504  0.84951  1.0000
  H   H1363     1.0  0.20469  0.93740  0.90782  1.0000
  C   C780      1.0  0.36648  0.89491  0.84710  1.0000
  C   C781      1.0  0.36478  0.87623  0.86318  1.0000
  C   C782      1.0  0.37425  0.85932  0.85713  1.0000
  C   C783      1.0  0.38603  0.86085  0.83508  1.0000
  C   C784      1.0  0.38837  0.87999  0.81924  1.0000
  C   C785      1.0  0.37859  0.89669  0.82516  1.0000
  H   H1364     1.0  0.35560  0.87440  0.88011  1.0000
  H   H1365     1.0  0.37220  0.84472  0.86964  1.0000
  H   H1366     1.0  0.39720  0.88158  0.80217  1.0000
  H   H1367     1.0  0.38014  0.91095  0.81248  1.0000
  C   C786      1.0  0.39451  0.54649  0.86730  1.0000
  C   C787      1.0  0.38619  0.52857  0.84882  1.0000
  C   C788      1.0  0.39740  0.53613  0.82643  1.0000
  C   C789      1.0  0.41759  0.56138  0.82267  1.0000
  C   C790      1.0  0.42608  0.57936  0.84116  1.0000
  C   C791      1.0  0.41432  0.57197  0.86342  1.0000
  H   H1368     1.0  0.37120  0.50886  0.85169  1.0000
  H   H1369     1.0  0.39082  0.52219  0.81212  1.0000
  H   H1370     1.0  0.44139  0.59901  0.83820  1.0000
  H   H1371     1.0  0.42069  0.58594  0.87768  1.0000
  H   H1372     1.0  0.44691  0.56722  0.90178  1.0000
  C   C792      1.0  0.10086  0.89531  0.83310  1.0000
  H   H1373     1.0  0.99504  0.48032  0.82405  1.0000
  H   H1374     1.0  0.99062  0.97394  0.91790  1.0000
  H   H1375     1.0  0.03156  0.94664  0.89028  1.0000
  C   C793      1.0  0.12170  0.91070  0.90837  1.0000
  C   C794      1.0  0.44546  0.92986  0.87137  1.0000
  H   H1376     1.0  0.43594  0.77764  0.85696  1.0000
  H   H1377     1.0  0.99353  0.91899  0.79486  1.0000
  H   H1378     1.0  0.43209  0.51727  0.82521  1.0000
  H   H1379     1.0  0.29943  0.58263  0.84565  1.0000
  H   H1380     1.0  0.09426  0.88957  0.88105  1.0000
  H   H1381     1.0  0.44618  0.87617  0.84526  1.0000
  H   H1382     1.0  0.00883  0.94043  0.81930  1.0000
  H   H1383     1.0  0.12076  0.65683  0.75550  1.0000
  C   C795      1.0  0.10721  0.64638  0.79183  1.0000
  H   H1384     1.0  0.33637  0.57625  0.87300  1.0000
  H   H1385     1.0  0.02819  0.93353  0.77179  1.0000
  C   C796      1.0  0.98854  0.71486  0.79673  1.0000
  C   C797      1.0  0.36362  0.57376  0.80046  1.0000
  H   H1386     1.0  0.16717  0.51297  0.96080  1.0000
  H   H1387     1.0  0.42695  0.91175  0.86758  1.0000
  H   H1388     1.0  0.44203  0.90912  0.82962  1.0000
  H   H1389     1.0  0.10232  0.67132  0.76659  1.0000
  H   H1390     1.0  0.19968  0.72699  0.86316  1.0000
  H   H1391     1.0  0.16002  0.48038  0.98726  1.0000
  H   H1392     1.0  0.42989  0.87807  0.87142  1.0000
  H   H1393     1.0  0.14298  0.92181  0.91146  1.0000
  C   C798      1.0  0.18593  0.52804  0.96830  1.0000
  H   H1394     1.0  0.29812  0.54208  0.89923  1.0000
  S   S186      1.0  0.43194  0.56987  0.79476  1.0000
  C   C799      1.0  0.41985  0.95203  0.88214  1.0000
  H   H1395     1.0  0.04386  0.97178  0.85288  1.0000
  C   C800      1.0  0.27181  0.97711  0.95377  1.0000
  H   H1396     1.0  0.13238  0.93584  0.80530  1.0000
  N   N42       1.0  0.46794  0.93022  0.85851  1.0000
  H   H1397     1.0  0.04011  0.50498  0.83379  1.0000
  C   C801      1.0  0.97906  0.89638  0.87670  1.0000
  N   N43       1.0  0.20173  0.49723  0.98393  1.0000
  H   H1398     1.0  0.11316  0.88740  0.79871  1.0000
  H   H1399     1.0  0.24967  0.55091  0.87465  1.0000
  H   H1400     1.0  0.34868  0.50047  0.97326  1.0000
  H   H1401     1.0  0.04722  0.96435  0.80375  1.0000
  H   H1402     1.0  0.02646  0.54430  0.89244  1.0000
  Fe  Fe92      1.0  0.09809  0.96843  0.89415  1.0000
  H   H1403     1.0  0.40458  0.59649  0.75793  1.0000
  N   N44       1.0  0.13732  0.66347  0.82874  1.0000
  C   C802      1.0  0.11638  0.66238  0.84451  1.0000
  C   C803      1.0  0.13199  0.66845  0.80373  1.0000
  C   C804      1.0  0.13707  0.63812  0.83058  1.0000
  C   C805      1.0  0.16378  0.68499  0.83609  1.0000
  C   C806      1.0  0.11964  0.65960  0.87138  1.0000
  C   C807      1.0  0.15577  0.63479  0.81371  1.0000
  C   C808      1.0  0.00186  0.95928  0.78874  1.0000
  H   H1404     1.0  0.20765  0.51393  0.94878  1.0000
  C   C809      1.0  0.09852  0.66117  0.88543  1.0000
  H   H1405     1.0  0.43269  0.67381  0.75878  1.0000
  H   H1406     1.0  0.09736  0.64558  0.83969  1.0000
  H   H1407     1.0  0.11386  0.67947  0.84160  1.0000
  H   H1408     1.0  0.43554  0.78002  0.88871  1.0000
  H   H1409     1.0  0.14884  0.67315  0.79207  1.0000
  H   H1410     1.0  0.11712  0.62157  0.82789  1.0000
  H   H1411     1.0  0.14245  0.63542  0.84879  1.0000
  H   H1412     1.0  0.17017  0.68001  0.85284  1.0000
  C   C810      1.0  0.39518  0.95239  0.98970  1.0000
  H   H1413     1.0  0.11790  0.64056  0.87525  1.0000
  H   H1414     1.0  0.17625  0.64921  0.81785  1.0000
  H   H1415     1.0  0.15188  0.63704  0.79494  1.0000
  H   H1416     1.0  0.05518  0.93413  0.96858  1.0000
  H   H1417     1.0  0.44313  0.51563  0.91747  1.0000
  H   H1418     1.0  0.43885  0.54005  0.86593  1.0000
  H   H1419     1.0  0.36972  0.59433  0.80403  1.0000
  H   H1420     1.0  0.06041  0.48271  0.96606  1.0000
  H   H1421     1.0  0.10054  0.65810  0.90451  1.0000
  H   H1422     1.0  0.18483  0.89505  0.84114  1.0000
  H   H1423     1.0  0.99727  0.63448  0.89669  1.0000
  S   S187      1.0  0.32902  0.96486  0.86675  1.0000
  H   H1424     1.0  0.15595  0.60426  0.83496  1.0000
  H   H1425     1.0  0.42003  0.51997  0.90066  1.0000
  H   H1426     1.0  0.38994  0.93452  0.97949  1.0000
  H   H1427     1.0  0.31489  0.52391  0.89878  1.0000
  H   H1428     1.0  0.45680  0.50823  0.82844  1.0000
  C   C811      1.0  0.11508  0.50401  0.99130  1.0000
  H   H1429     1.0  0.02825  0.97020  0.90637  1.0000
  C   C812      1.0  0.32645  0.55806  0.82974  1.0000
  C   C813      1.0  0.23920  0.96525  0.88956  1.0000
  H   H1430     1.0  0.27409  0.52718  0.86654  1.0000
  C   C814      1.0  0.00851  0.96073  0.87296  1.0000
  H   H1431     1.0  0.33263  0.57880  0.83255  1.0000
  H   H1432     1.0  0.12413  0.88891  0.87910  1.0000
  H   H1433     1.0  0.09707  0.87758  0.84288  1.0000
  H   H1434     1.0  0.24450  0.95566  0.98285  1.0000
  H   H1435     1.0  0.25089  0.55773  0.84339  1.0000
  H   H1436     1.0  0.18122  0.94369  0.85211  1.0000
  S   S188      1.0  0.12880  0.48480  0.92286  1.0000
  H   H1437     1.0  0.43717  0.53755  0.95207  1.0000
  H   H1438     1.0  0.13330  0.59282  0.81047  1.0000
  C   C815      1.0  0.45758  0.54009  0.86670  1.0000
  C   C816      1.0  0.33446  0.56007  0.91735  1.0000
  H   H1439     1.0  0.22551  0.53634  0.97127  1.0000
  C   C817      1.0  0.22059  0.48816  0.97767  1.0000
  C   C818      1.0  0.03926  0.93843  0.96553  1.0000
  C   C819      1.0  0.19417  0.73225  0.84613  1.0000
  H   H1440     1.0  0.00826  0.90331  0.90197  1.0000
  H   H1441     1.0  0.99836  0.51473  0.84721  1.0000
  C   C820      1.0  0.98826  0.63340  0.87918  1.0000
  C   C821      1.0  0.35118  0.55725  0.82239  1.0000
  C   C822      1.0  0.13199  0.94039  0.82430  1.0000
  H   H1442     1.0  0.23001  0.91192  0.96716  1.0000
  H   H1443     1.0  0.40682  0.51080  0.94225  1.0000
  C   C823      1.0  0.24816  0.92868  0.96049  1.0000
  C   C824      1.0  0.01350  0.51987  0.86097  1.0000
  H   H1444     1.0  0.32579  0.55053  0.93443  1.0000
  C   C825      1.0  0.01064  0.53734  0.87907  1.0000
  C   C826      1.0  0.19513  0.97682  0.99703  1.0000
  Fe  Fe93      1.0  0.43810  0.82048  0.75246  1.0000
  C   C827      1.0  0.44780  0.78805  0.87273  1.0000
  C   C828      1.0  0.42280  0.53032  0.93739  1.0000
  H   H1445     1.0  0.01056  0.95370  0.94251  1.0000
  H   H1446     1.0  0.19557  0.75142  0.84831  1.0000
  H   H1447     1.0  0.17984  0.55851  0.95441  1.0000
  C   C829      1.0  0.16644  0.71208  0.83916  1.0000
  H   H1448     1.0  0.34989  0.56661  0.78528  1.0000
  H   H1449     1.0  0.97919  0.61313  0.87270  1.0000
  H   H1450     1.0  0.25025  0.92536  0.94148  1.0000
  C   C830      1.0  0.14750  0.90987  0.83520  1.0000
  H   H1451     1.0  0.98500  0.95446  0.77694  1.0000
  H   H1452     1.0  0.20199  0.96289  0.99352  1.0000
  C   C831      1.0  0.43547  0.52888  0.91433  1.0000
  H   H1453     1.0  0.02359  0.92709  0.97845  1.0000
  H   H1454     1.0  0.07643  0.50384  0.81094  1.0000
  C   C832      1.0  0.12612  0.92452  0.86518  1.0000
  N   N45       1.0  0.31249  0.54248  0.85134  1.0000
  C   C833      1.0  0.25032  0.49044  0.90432  1.0000
  C   C834      1.0  0.97240  0.95600  0.92243  1.0000
  H   H1455     1.0  0.45227  0.51975  0.87039  1.0000
  H   H1456     1.0  0.21952  0.48391  0.95837  1.0000
  C   C835      1.0  0.29162  0.49978  0.82732  1.0000
  H   H1457     1.0  0.45196  0.90425  0.78878  1.0000
  H   H1458     1.0  0.38111  0.57261  0.79557  1.0000
  H   H1459     1.0  0.09304  0.90214  0.79663  1.0000
  H   H1460     1.0  0.18235  0.53224  0.98653  1.0000
  H   H1461     1.0  0.08602  0.63762  0.75866  1.0000
  H   H1462     1.0  0.46426  0.76368  0.87715  1.0000
  H   H1463     1.0  0.08296  0.48712  0.83418  1.0000
  H   H1464     1.0  0.37976  0.95743  0.98681  1.0000
  C   C836      1.0  0.98462  0.75401  0.80009  1.0000
  H   H1465     1.0  0.98372  0.92170  0.75496  1.0000
  H   H1466     1.0  0.98209  0.86129  0.87734  1.0000
  H   H1467     1.0  0.43610  0.84107  0.87367  1.0000
  H   H1468     1.0  0.35416  0.56242  0.91613  1.0000
  H   H1469     1.0  0.01193  0.55445  0.86996  1.0000
  C   C837      1.0  0.28683  0.54180  0.85332  1.0000
  H   H1470     1.0  0.41400  0.70514  0.76468  1.0000
  C   C838      1.0  0.34978  0.49568  0.99149  1.0000
  Fe  Fe94      1.0  0.98332  0.85343  0.78583  1.0000
  C   C839      1.0  0.44842  0.88072  0.86442  1.0000
  H   H1471     1.0  0.26954  0.49785  0.91162  1.0000
  H   H1472     1.0  0.40192  0.93279  0.88247  1.0000
  C   C840      1.0  0.24963  0.50739  0.98305  1.0000
  C   C841      1.0  0.19495  0.55274  0.95394  1.0000
  C   C842      1.0  0.45847  0.73709  0.79993  1.0000
  H   H1473     1.0  0.07501  0.84594  0.81094  1.0000
  H   H1474     1.0  0.05485  0.86076  0.81070  1.0000
  C   C843      1.0  0.28835  0.56791  0.85933  1.0000
  H   H1475     1.0  0.30068  0.51024  0.81075  1.0000
  H   H1476     1.0  0.34668  0.53728  0.81811  1.0000
  H   H1477     1.0  0.42799  0.95696  0.90031  1.0000
  C   C844      1.0  0.99450  0.93545  0.80482  1.0000
  C   C845      1.0  0.33307  0.95906  0.99363  1.0000
  H   H1478     1.0  0.25636  0.52585  0.97345  1.0000
  H   H1479     1.0  0.46654  0.56366  0.83463  1.0000
  C   C846      1.0  0.07222  0.86133  0.80281  1.0000
  H   H1480     1.0  0.99356  0.77450  0.80371  1.0000
  C   C847      1.0  0.15290  0.60799  0.81630  1.0000
  H   H1481     1.0  0.22956  0.95100  0.95414  1.0000
  C   C848      1.0  0.32949  0.55514  0.87267  1.0000
  C   C849      1.0  0.17219  0.92243  0.85108  1.0000
  H   H1482     1.0  0.13867  0.67500  0.87809  1.0000
  H   H1483     1.0  0.27147  0.49632  0.82816  1.0000
  H   H1484     1.0  0.32571  0.51454  0.85040  1.0000
  H   H1485     1.0  0.45557  0.86427  0.89608  1.0000
  H   H1486     1.0  0.07892  0.64605  0.87942  1.0000
  H   H1487     1.0  0.16748  0.60658  0.80512  1.0000
  C   C850      1.0  0.21236  0.49570  0.89658  1.0000
  H   H1488     1.0  0.45935  0.94298  0.82568  1.0000
  C   C851      1.0  0.24701  0.95355  0.96373  1.0000
  C   C852      1.0  0.45310  0.86062  0.87673  1.0000
  H   H1489     1.0  0.15391  0.91361  0.81642  1.0000
  H   H1490     1.0  0.36592  0.56491  0.83670  1.0000
  H   H1491     1.0  0.11338  0.93319  0.86697  1.0000
  H   H1492     1.0  0.11318  0.89374  0.92038  1.0000
  Fe  Fe95      1.0  0.35245  0.49497  0.89980  1.0000
  C   C853      1.0  0.00525  0.93416  0.93567  1.0000
  H   H1493     1.0  0.00384  0.64629  0.86678  1.0000
  H   H1494     1.0  0.08527  0.89931  0.83868  1.0000
  H   H1495     1.0  0.03209  0.48614  0.96246  1.0000
  C   C854      1.0  0.99027  0.90469  0.90199  1.0000
  H   H1496     1.0  0.26276  0.58369  0.86468  1.0000
  H   H1497     1.0  0.31315  0.55209  0.81421  1.0000
  C   C855      1.0  0.31727  0.54349  0.89697  1.0000
  H   H1498     1.0  0.41455  0.54332  0.93541  1.0000
  H   H1499     1.0  0.98937  0.92002  0.94730  1.0000
  N   N46       1.0  0.99593  0.93108  0.91031  1.0000
  C   C856      1.0  0.07038  0.48457  0.81871  1.0000
  H   H1500     1.0  0.34749  0.55387  0.87160  1.0000
  H   H1501     1.0  0.27584  0.53504  0.83640  1.0000
  H   H1502     1.0  0.06856  0.85726  0.78359  1.0000
  C   C857      1.0  0.43972  0.95190  0.86511  1.0000
  H   H1503     1.0  0.04549  0.94365  0.92819  1.0000
  C   C858      1.0  0.01705  0.95228  0.89563  1.0000
  C   C859      1.0  0.26125  0.56479  0.86053  1.0000
  C   C860      1.0  0.10403  0.65360  0.76661  1.0000
  H   H1504     1.0  0.13904  0.88861  0.83747  1.0000
  N   N47       1.0  0.12726  0.91773  0.83964  1.0000
  C   C861      1.0  0.02935  0.93109  0.94017  1.0000
  H   H1505     1.0  0.29779  0.57546  0.87672  1.0000
  H   H1506     1.0  0.26505  0.49273  0.95589  1.0000
  H   H1507     1.0  0.10790  0.62817  0.79083  1.0000
  H   H1508     1.0  0.03273  0.53161  0.85268  1.0000
  H   H1509     1.0  0.15955  0.97236  0.84721  1.0000
  S   S189      1.0  0.97922  0.63549  0.76127  1.0000
  H   H1510     1.0  0.17441  0.96801  0.99167  1.0000
  C   C862      1.0  0.46556  0.70018  0.80593  1.0000
  H   H1511     1.0  0.10371  0.96673  0.97020  1.0000
  H   H1512     1.0  0.97829  0.66222  0.88780  1.0000
  H   H1513     1.0  0.05316  0.49556  0.85753  1.0000
  H   H1514     1.0  0.18162  0.96252  0.90397  1.0000
  C   C863      1.0  0.45700  0.55628  0.90650  1.0000
  H   H1515     1.0  0.05648  0.50069  0.77117  1.0000
  H   H1516     1.0  0.15342  0.71196  0.85323  1.0000
  H   H1517     1.0  0.12977  0.68589  0.80316  1.0000
  H   H1518     1.0  0.41384  0.96824  0.98285  1.0000
  H   H1519     1.0  0.26485  0.92979  0.97045  1.0000
  H   H1520     1.0  0.44852  0.93016  0.89086  1.0000
  H   H1521     1.0  0.43133  0.94893  0.84703  1.0000
  C   C864      1.0  0.06428  0.49778  0.75435  1.0000
  H   H1522     1.0  0.20811  0.73396  0.83222  1.0000
  H   H1523     1.0  0.17857  0.68733  0.82278  1.0000
  H   H1524     1.0  0.08957  0.64257  0.80167  1.0000
  H   H1525     1.0  0.99160  0.52694  0.88815  1.0000
  H   H1526     1.0  0.99486  0.90633  0.86355  1.0000
  H   H1527     1.0  0.11564  0.94439  0.82632  1.0000
  H   H1528     1.0  0.07819  0.97379  0.77236  1.0000
  H   H1529     1.0  0.45381  0.80886  0.87141  1.0000
  H   H1530     1.0  0.04704  0.95943  0.96864  1.0000
  H   H1531     1.0  0.46869  0.56573  0.92261  1.0000
  H   H1532     1.0  0.21315  0.56882  0.96144  1.0000
  N   N48       1.0  0.02640  0.96888  0.77446  1.0000
  H   H1533     1.0  0.08570  0.50691  0.75609  1.0000
  H   H1534     1.0  0.99692  0.97003  0.87747  1.0000
  C   C865      1.0  0.10474  0.97367  0.98806  1.0000
  H   H1535     1.0  0.47051  0.86090  0.86946  1.0000
  C   C866      1.0  0.20079  0.97000  0.89661  1.0000
  H   H1536     1.0  0.17448  0.96386  0.82361  1.0000
  C   C867      1.0  0.03715  0.48794  0.84416  1.0000
  C   C868      1.0  0.15763  0.96603  0.82857  1.0000
  H   H1537     1.0  0.27110  0.97406  0.93438  1.0000
  S   S190      1.0  0.32174  0.97780  0.92165  1.0000
  H   H1538     1.0  0.28893  0.97581  0.95995  1.0000
  C   C869      1.0  0.46835  0.54702  0.84106  1.0000
  H   H1539     1.0  0.02710  0.50175  0.88623  1.0000
  C   C870      1.0  0.01113  0.49532  0.87293  1.0000
  H   H1540     1.0  0.00331  0.97489  0.80051  1.0000
  C   C871      1.0  0.02596  0.94732  0.76015  1.0000
  H   H1541     1.0  0.45736  0.97129  0.86591  1.0000
  H   H1542     1.0  0.41442  0.96649  0.87632  1.0000
  H   H1543     1.0  0.99275  0.48687  0.88317  1.0000
  H   H1544     1.0  0.97183  0.95366  0.94196  1.0000
  C   C872      1.0  0.47133  0.90854  0.86843  1.0000
  S   S191      1.0  0.47105  0.81578  0.76583  1.0000
  Fe  Fe96      1.0  0.61780  0.99802  0.13097  1.0000
  Fe  Fe97      1.0  0.84239  0.36110  0.22681  1.0000
  S   S192      1.0  0.83870  0.33299  0.19848  1.0000
  S   S193      1.0  0.83359  0.39357  0.22401  1.0000
  Fe  Fe98      1.0  0.81908  0.30230  0.22665  1.0000
  S   S194      1.0  0.78339  0.26084  0.22647  1.0000
  Fe  Fe99      1.0  0.87790  0.34059  0.21231  1.0000
  S   S195      1.0  0.90993  0.34880  0.18431  1.0000
  C   C873      1.0  0.52434  0.06180  0.14504  1.0000
  H   H1545     1.0  0.55745  0.05180  0.18941  1.0000
  Fe  Fe100     1.0  0.86017  0.02033  0.08855  1.0000
  S   S196      1.0  0.86120  0.05385  0.10767  1.0000
  S   S197      1.0  0.85026  0.01921  0.04945  1.0000
  H   H1546     1.0  0.54425  0.07224  0.18683  1.0000
  S   S198      1.0  0.86567  0.02995  0.15708  1.0000
  S   S199      1.0  0.85550  0.44634  0.12401  1.0000
  Fe  Fe101     1.0  0.83250  0.02357  0.13261  1.0000
  S   S200      1.0  0.79508  0.02623  0.13666  1.0000
  Fe  Fe102     1.0  0.89423  0.05660  0.13010  1.0000
  S   S201      1.0  0.93379  0.09286  0.13879  1.0000
  C   C874      1.0  0.49704  0.47310  0.17850  1.0000
  S   S202      1.0  0.89555  0.02597  0.10812  1.0000
  Fe  Fe103     1.0  0.62322  0.16154  0.22873  1.0000
  C   C875      1.0  0.96649  0.98945  0.19914  1.0000
  S   S203      1.0  0.65821  0.20202  0.22030  1.0000
  Fe  Fe104     1.0  0.56326  0.12320  0.21864  1.0000
  H   H1547     1.0  0.66366  0.99948  0.05769  1.0000
  S   S204      1.0  0.52895  0.11119  0.19192  1.0000
  Fe  Fe105     1.0  0.59939  0.10330  0.23401  1.0000
  S   S205      1.0  0.59954  0.06581  0.23284  1.0000
  C   C876      1.0  0.62218  0.00989  0.02020  1.0000
  S   S206      1.0  0.60065  0.12787  0.20347  1.0000
  Fe  Fe106     1.0  0.63440  0.45732  0.13179  1.0000
  H   H1548     1.0  0.70629  0.07529  0.23085  1.0000
  S   S207      1.0  0.67087  0.45289  0.12800  1.0000
  Fe  Fe107     1.0  0.57544  0.43530  0.14648  1.0000
  C   C877      1.0  0.77544  0.42850  0.17583  1.0000
  S   S208      1.0  0.54306  0.41218  0.17411  1.0000
  Fe  Fe108     1.0  0.59371  0.45047  0.09487  1.0000
  S   S209      1.0  0.58555  0.44068  0.05591  1.0000
  C   C878      1.0  0.96026  0.07976  0.17279  1.0000
  S   S210      1.0  0.63026  0.04016  0.13432  1.0000
  S   S211      1.0  0.59609  0.42279  0.12038  1.0000
  C   C879      1.0  0.90695  0.08289  0.03173  1.0000
  C   C880      1.0  0.60189  0.45996  0.01140  1.0000
  C   C881      1.0  0.91039  0.42647  0.08418  1.0000
  H   H1549     1.0  0.79370  0.04589  0.04990  1.0000
  H   H1550     1.0  0.53310  0.03848  0.22880  1.0000
  H   H1551     1.0  0.90018  0.04594  0.01977  1.0000
  H   H1552     1.0  0.56588  0.08493  0.11370  1.0000
  H   H1553     1.0  0.79356  0.00597  0.03895  1.0000
  C   C882      1.0  0.60886  0.05926  0.20567  1.0000
  C   C883      1.0  0.60105  0.03364  0.19985  1.0000
  C   C884      1.0  0.60747  0.02774  0.17784  1.0000
  C   C885      1.0  0.62234  0.04750  0.16189  1.0000
  C   C886      1.0  0.63079  0.07326  0.16799  1.0000
  C   C887      1.0  0.62367  0.07912  0.18976  1.0000
  H   H1554     1.0  0.58942  0.01823  0.21208  1.0000
  H   H1555     1.0  0.60021  0.00782  0.17302  1.0000
  H   H1556     1.0  0.64255  0.08865  0.15579  1.0000
  H   H1557     1.0  0.63000  0.09901  0.19436  1.0000
  C   C888      1.0  0.76066  0.00510  0.13869  1.0000
  C   C889      1.0  0.49727  0.06533  0.11172  1.0000
  H   H1558     1.0  0.53211  0.02264  0.12703  1.0000
  H   H1559     1.0  0.79056  0.35860  0.18203  1.0000
  C   C890      1.0  0.71658  0.99793  0.13175  1.0000
  C   C891      1.0  0.74388  0.01345  0.12975  1.0000
  H   H1560     1.0  0.77156  0.46545  0.20412  1.0000
  H   H1561     1.0  0.58164  0.06183  0.15491  1.0000
  H   H1562     1.0  0.70404  0.00452  0.12449  1.0000
  H   H1563     1.0  0.75209  0.03211  0.12122  1.0000
  C   C892      1.0  0.96103  0.09825  0.15695  1.0000
  H   H1564     1.0  0.90055  0.42153  0.20051  1.0000
  C   C893      1.0  0.47788  0.07235  0.20371  1.0000
  C   C894      1.0  0.49457  0.09014  0.18691  1.0000
  C   C895      1.0  0.48371  0.09118  0.16498  1.0000
  H   H1565     1.0  0.94269  0.35369  0.14480  1.0000
  H   H1566     1.0  0.90890  0.41011  0.07359  1.0000
  H   H1567     1.0  0.77909  0.39071  0.19935  1.0000
  H   H1568     1.0  0.49615  0.10486  0.15180  1.0000
  H   H1569     1.0  0.94252  0.06139  0.17452  1.0000
  S   S212      1.0  0.61417  0.46749  0.16045  1.0000
  H   H1570     1.0  0.80508  0.47281  0.20279  1.0000
  H   H1571     1.0  0.87002  0.41602  0.07775  1.0000
  C   C896      1.0  0.84528  0.46371  0.01721  1.0000
  C   C897      1.0  0.68734  0.07132  0.22348  1.0000
  H   H1572     1.0  0.62127  0.40747  0.06481  1.0000
  H   H1573     1.0  0.83694  0.44381  0.02283  1.0000
  C   C898      1.0  0.74855  0.24538  0.22594  1.0000
  C   C899      1.0  0.73524  0.25835  0.21959  1.0000
  C   C900      1.0  0.70775  0.24486  0.21831  1.0000
  C   C901      1.0  0.69296  0.21821  0.22349  1.0000
  C   C902      1.0  0.70626  0.20539  0.23042  1.0000
  H   H1574     1.0  0.72791  0.42690  0.16061  1.0000
  H   H1575     1.0  0.54269  0.42979  0.02148  1.0000
  C   C903      1.0  0.51111  0.05120  0.12064  1.0000
  H   H1576     1.0  0.47782  0.33698  0.18563  1.0000
  H   H1577     1.0  0.54881  0.46375  0.04667  1.0000
  C   C904      1.0  0.94435  0.36921  0.17959  1.0000
  C   C905      1.0  0.78077  0.00499  0.05369  1.0000
  H   H1578     1.0  0.52982  0.41980  0.06573  1.0000
  C   C906      1.0  0.50853  0.39793  0.17788  1.0000
  C   C907      1.0  0.49828  0.39392  0.20098  1.0000
  C   C908      1.0  0.73376  0.21884  0.23150  1.0000
  H   H1579     1.0  0.51413  0.01265  0.19220  1.0000
  H   H1580     1.0  0.52194  0.44147  0.08093  1.0000
  H   H1581     1.0  0.51145  0.39992  0.21591  1.0000
  H   H1582     1.0  0.52820  0.45196  0.18716  1.0000
  C   C909      1.0  0.83942  0.40787  0.19610  1.0000
  C   C910      1.0  0.83967  0.43128  0.19342  1.0000
  C   C911      1.0  0.84443  0.44311  0.17123  1.0000
  C   C912      1.0  0.84901  0.43162  0.15172  1.0000
  C   C913      1.0  0.84812  0.40789  0.15427  1.0000
  C   C914      1.0  0.84340  0.39607  0.17647  1.0000
  H   H1583     1.0  0.83605  0.44018  0.20852  1.0000
  H   H1584     1.0  0.74596  0.36976  0.19063  1.0000
  H   H1585     1.0  0.85099  0.39859  0.13909  1.0000
  H   H1586     1.0  0.84249  0.37766  0.17827  1.0000
  H   H1587     1.0  0.53565  0.08337  0.14428  1.0000
  C   C915      1.0  0.57453  0.07356  0.12079  1.0000
  H   H1588     1.0  0.53214  0.46802  0.14844  1.0000
  H   H1589     1.0  0.48824  0.44775  0.14719  1.0000
  C   C916      1.0  0.53169  0.02388  0.14657  1.0000
  N   N49       1.0  0.54114  0.05130  0.15464  1.0000
  C   C917      1.0  0.48300  0.44629  0.16615  1.0000
  C   C918      1.0  0.64273  0.42004  0.06507  1.0000
  H   H1590     1.0  0.68539  0.09856  0.24774  1.0000
  H   H1591     1.0  0.76065  0.47152  0.11424  1.0000
  H   H1592     1.0  0.51089  0.01140  0.15129  1.0000
  H   H1593     1.0  0.49783  0.41611  0.06257  1.0000
  H   H1594     1.0  0.95850  0.03321  0.10752  1.0000
  H   H1595     1.0  0.69115  0.38290  0.12748  1.0000
  H   H1596     1.0  0.64198  0.44450  0.03780  1.0000
  H   H1597     1.0  0.79871  0.47004  0.04655  1.0000
  C   C919      1.0  0.96693  0.05370  0.11305  1.0000
  H   H1598     1.0  0.67849  0.99321  0.17852  1.0000
  C   C920      1.0  0.64993  0.44689  0.05596  1.0000
  H   H1599     1.0  0.73114  0.98371  0.07517  1.0000
  H   H1600     1.0  0.68852  0.02183  0.02311  1.0000
  H   H1601     1.0  0.94757  0.98654  0.20562  1.0000
  C   C921      1.0  0.47789  0.32360  0.15053  1.0000
  H   H1602     1.0  0.49945  0.33486  0.15001  1.0000
  H   H1603     1.0  0.74611  0.27863  0.21502  1.0000
  H   H1604     1.0  0.57648  0.08843  0.15587  1.0000
  Fe  Fe109     1.0  0.86745  0.99943  0.13517  1.0000
  H   H1605     1.0  0.79982  0.98998  0.07551  1.0000
  C   C922      1.0  0.95512  0.36780  0.15778  1.0000
  S   S213      1.0  0.56170  0.09731  0.24806  1.0000
  H   H1606     1.0  0.77485  0.05039  0.17589  1.0000
  H   H1607     1.0  0.67562  0.45457  0.00993  1.0000
  H   H1608     1.0  0.68586  0.38549  0.15868  1.0000
  H   H1609     1.0  0.61308  0.07775  0.12069  1.0000
  C   C923      1.0  0.68427  0.09487  0.22840  1.0000
  H   H1610     1.0  0.96864  0.46037  0.23262  1.0000
  H   H1611     1.0  0.48931  0.46993  0.19682  1.0000
  H   H1612     1.0  0.90505  0.43549  0.11983  1.0000
  H   H1613     1.0  0.77967  0.03263  0.07834  1.0000
  H   H1614     1.0  0.51682  0.05662  0.22243  1.0000
  H   H1615     1.0  0.76105  0.42144  0.19050  1.0000
  H   H1616     1.0  0.89551  0.33265  0.08698  1.0000
  H   H1617     1.0  0.49838  0.39264  0.14099  1.0000
  H   H1618     1.0  0.76767  0.34613  0.20583  1.0000
  H   H1619     1.0  0.91556  0.10317  0.02550  1.0000
  H   H1620     1.0  0.49808  0.03070  0.18580  1.0000
  H   H1621     1.0  0.51095  0.08650  0.11075  1.0000
  C   C924      1.0  0.52826  0.44877  0.04324  1.0000
  H   H1622     1.0  0.48552  0.07141  0.22081  1.0000
  H   H1623     1.0  0.56103  0.47000  0.23582  1.0000
  C   C925      1.0  0.79219  0.03224  0.06396  1.0000
  H   H1624     1.0  0.89261  0.43660  0.05557  1.0000
  H   H1625     1.0  0.50828  0.05807  0.15729  1.0000
  H   H1626     1.0  0.88671  0.07592  0.03766  1.0000
  H   H1627     1.0  0.49804  0.02257  0.22845  1.0000
  N   N50       1.0  0.69338  0.04580  0.18907  1.0000
  C   C926      1.0  0.68715  0.04044  0.16308  1.0000
  C   C927      1.0  0.67687  0.02126  0.20281  1.0000
  C   C928      1.0  0.68544  0.06521  0.19661  1.0000
  C   C929      1.0  0.72194  0.05669  0.19445  1.0000
  C   C930      1.0  0.73719  0.04779  0.17828  1.0000
  C   C931      1.0  0.69884  0.06470  0.14693  1.0000
  H   H1628     1.0  0.61835  0.99897  0.05709  1.0000
  H   H1629     1.0  0.71749  0.00522  0.01969  1.0000
  C   C932      1.0  0.76427  0.05645  0.18815  1.0000
  C   C933      1.0  0.69942  0.05769  0.12103  1.0000
  H   H1630     1.0  0.66575  0.03006  0.16029  1.0000
  H   H1631     1.0  0.69324  0.02692  0.15612  1.0000
  H   H1632     1.0  0.91981  0.40591  0.19735  1.0000
  H   H1633     1.0  0.65588  0.01473  0.19996  1.0000
  H   H1634     1.0  0.66504  0.05851  0.19111  1.0000
  H   H1635     1.0  0.69749  0.08402  0.18750  1.0000
  H   H1636     1.0  0.73257  0.07821  0.19335  1.0000
  H   H1637     1.0  0.72453  0.05236  0.21308  1.0000
  H   H1638     1.0  0.73976  0.05631  0.16038  1.0000
  H   H1639     1.0  0.72719  0.02658  0.17604  1.0000
  H   H1640     1.0  0.68680  0.07416  0.14807  1.0000
  H   H1641     1.0  0.71888  0.07914  0.15238  1.0000
  H   H1642     1.0  0.94866  0.45590  0.13099  1.0000
  C   C934      1.0  0.51602  0.03778  0.21999  1.0000
  C   C935      1.0  0.68100  0.99813  0.19754  1.0000
  H   H1643     1.0  0.80076  0.46610  0.15911  1.0000
  C   C936      1.0  0.90303  0.47755  0.22892  1.0000
  H   H1644     1.0  0.64953  0.42119  0.08358  1.0000
  H   H1645     1.0  0.77556  0.07784  0.18997  1.0000
  H   H1646     1.0  0.76295  0.04739  0.20562  1.0000
  H   H1647     1.0  0.71260  0.04969  0.11867  1.0000
  H   H1648     1.0  0.67962  0.04330  0.11488  1.0000
  H   H1649     1.0  0.70656  0.07528  0.10993  1.0000
  N   N51       1.0  0.76584  0.40929  0.15556  1.0000
  C   C937      1.0  0.77917  0.42256  0.13285  1.0000
  H   H1650     1.0  0.66512  0.09140  0.22198  1.0000
  C   C938      1.0  0.77303  0.38873  0.16067  1.0000
  C   C939      1.0  0.73664  0.39593  0.15345  1.0000
  C   C940      1.0  0.72490  0.41296  0.14630  1.0000
  C   C941      1.0  0.77237  0.40504  0.11067  1.0000
  H   H1651     1.0  0.92763  0.46018  0.22148  1.0000
  H   H1652     1.0  0.92827  0.34900  0.09817  1.0000
  H   H1653     1.0  0.52517  0.05300  0.10696  1.0000
  C   C942      1.0  0.69557  0.39655  0.14245  1.0000
  C   C943      1.0  0.78620  0.42097  0.08879  1.0000
  C   C944      1.0  0.61443  0.99210  0.03902  1.0000
  H   H1654     1.0  0.80063  0.43235  0.13531  1.0000
  H   H1655     1.0  0.77515  0.43829  0.12822  1.0000
  H   H1656     1.0  0.48095  0.06160  0.12360  1.0000
  H   H1657     1.0  0.93604  0.98825  0.12253  1.0000
  H   H1658     1.0  0.79426  0.39670  0.15821  1.0000
  H   H1659     1.0  0.76340  0.37248  0.14783  1.0000
  H   H1660     1.0  0.72939  0.37947  0.14077  1.0000
  H   H1661     1.0  0.72740  0.38694  0.17054  1.0000
  H   H1662     1.0  0.73343  0.42343  0.12963  1.0000
  H   H1663     1.0  0.76203  0.45804  0.01925  1.0000
  H   H1664     1.0  0.77865  0.39049  0.11292  1.0000
  H   H1665     1.0  0.75121  0.39492  0.10702  1.0000
  H   H1666     1.0  0.95325  0.38880  0.21311  1.0000
  H   H1667     1.0  0.84415  0.46086  0.16918  1.0000
  H   H1668     1.0  0.67152  0.05481  0.23317  1.0000
  H   H1669     1.0  0.89162  0.44997  0.08382  1.0000
  C   C945      1.0  0.60107  0.46600  0.03524  1.0000
  S   S214      1.0  0.83195  0.99018  0.11349  1.0000
  C   C946      1.0  0.77053  0.35322  0.18734  1.0000
  C   C947      1.0  0.96094  0.38751  0.19617  1.0000
  H   H1670     1.0  0.68744  0.40930  0.13826  1.0000
  C   C948      1.0  0.78908  0.47301  0.19278  1.0000
  H   H1671     1.0  0.78036  0.43568  0.08528  1.0000
  H   H1672     1.0  0.80761  0.43085  0.09123  1.0000
  H   H1673     1.0  0.78103  0.40808  0.07312  1.0000
  C   C949      1.0  0.95181  0.44037  0.12370  1.0000
  C   C950      1.0  0.90752  0.06553  0.01212  1.0000
  S   S215      1.0  0.85787  0.30707  0.23805  1.0000
  C   C951      1.0  0.60365  0.08917  0.11593  1.0000
  S   S216      1.0  0.57039  0.46023  0.11967  1.0000
  C   C952      1.0  0.51575  0.03194  0.19369  1.0000
  H   H1674     1.0  0.49631  0.03041  0.12213  1.0000
  H   H1675     1.0  0.81194  0.03888  0.07121  1.0000
  H   H1676     1.0  0.88405  0.46107  0.22294  1.0000
  H   H1677     1.0  0.91834  0.08253  0.04719  1.0000
  C   C953      1.0  0.67498  0.99164  0.04894  1.0000
  C   C954      1.0  0.51885  0.43034  0.06434  1.0000
  C   C955      1.0  0.54083  0.05281  0.18134  1.0000
  H   H1678     1.0  0.51684  0.45875  0.04270  1.0000
  H   H1679     1.0  0.89923  0.46837  0.18338  1.0000
  H   H1680     1.0  0.60698  0.09382  0.09680  1.0000
  C   C956      1.0  0.54733  0.01123  0.15584  1.0000
  H   H1681     1.0  0.69990  0.11238  0.21963  1.0000
  C   C957      1.0  0.56903  0.06897  0.14759  1.0000
  H   H1682     1.0  0.63212  0.03042  0.02396  1.0000
  H   H1683     1.0  0.68548  0.46642  0.07560  1.0000
  H   H1684     1.0  0.56675  0.05508  0.11097  1.0000
  H   H1685     1.0  0.88654  0.40238  0.11293  1.0000
  H   H1686     1.0  0.88716  0.39056  0.18637  1.0000
  C   C958      1.0  0.48792  0.45272  0.00405  1.0000
  C   C959      1.0  0.49105  0.38992  0.15886  1.0000
  H   H1687     1.0  0.92798  0.07304  0.00703  1.0000
  C   C960      1.0  0.83195  0.99433  0.00734  1.0000
  H   H1688     1.0  0.59377  0.43995  0.00610  1.0000
  H   H1689     1.0  0.77389  0.99070  0.08970  1.0000
  H   H1690     1.0  0.61285  0.10757  0.12611  1.0000
  C   C961      1.0  0.92058  0.46656  0.23671  1.0000
  H   H1691     1.0  0.48182  0.44165  0.02082  1.0000
  C   C962      1.0  0.72144  0.46431  0.11984  1.0000
  N   N52       1.0  0.92652  0.41506  0.12262  1.0000
  C   C963      1.0  0.93089  0.39584  0.10896  1.0000
  C   C964      1.0  0.52653  0.43414  0.01991  1.0000
  C   C965      1.0  0.91708  0.40442  0.14701  1.0000
  C   C966      1.0  0.90626  0.41955  0.11085  1.0000
  S   S217      1.0  0.88176  0.36990  0.23957  1.0000
  C   C967      1.0  0.90651  0.36896  0.10473  1.0000
  C   C968      1.0  0.91509  0.42300  0.16496  1.0000
  H   H1692     1.0  0.77184  0.46948  0.06182  1.0000
  H   H1693     1.0  0.69783  0.25507  0.21286  1.0000
  H   H1694     1.0  0.76763  0.45836  0.16052  1.0000
  C   C969      1.0  0.91313  0.35190  0.08945  1.0000
  C   C970      1.0  0.90513  0.40950  0.18872  1.0000
  H   H1695     1.0  0.94493  0.39189  0.11846  1.0000
  H   H1696     1.0  0.94013  0.40401  0.09161  1.0000
  H   H1697     1.0  0.50834  0.41499  0.02015  1.0000
  H   H1698     1.0  0.53161  0.47909  0.10566  1.0000
  H   H1699     1.0  0.92953  0.39745  0.15494  1.0000
  H   H1700     1.0  0.89739  0.38697  0.14604  1.0000
  H   H1701     1.0  0.65137  0.41110  0.05374  1.0000
  H   H1702     1.0  0.82791  0.98497  0.19761  1.0000
  H   H1703     1.0  0.48926  0.05824  0.09377  1.0000
  H   H1704     1.0  0.92963  0.44370  0.08094  1.0000
  H   H1705     1.0  0.89887  0.35870  0.12175  1.0000
  H   H1706     1.0  0.89084  0.37059  0.09565  1.0000
  H   H1707     1.0  0.90142  0.42919  0.15857  1.0000
  H   H1708     1.0  0.93418  0.44051  0.16814  1.0000
  H   H1709     1.0  0.66069  0.99212  0.01431  1.0000
  H   H1710     1.0  0.82526  0.00801  0.00460  1.0000
  C   C971      1.0  0.67974  0.46542  0.05669  1.0000
  H   H1711     1.0  0.94957  0.46864  0.01908  1.0000
  H   H1712     1.0  0.56133  0.44829  0.21359  1.0000
  H   H1713     1.0  0.56611  0.01942  0.14631  1.0000
  H   H1714     1.0  0.96149  0.47488  0.04906  1.0000
  H   H1715     1.0  0.68046  0.02474  0.22210  1.0000
  C   C972      1.0  0.78302  0.45692  0.17020  1.0000
  C   C973      1.0  0.56946  0.46889  0.21865  1.0000
  H   H1716     1.0  0.52415  0.46723  0.21220  1.0000
  H   H1717     1.0  0.68936  0.45599  0.04746  1.0000
  H   H1718     1.0  0.71250  0.44655  0.10972  1.0000
  H   H1719     1.0  0.74599  0.32111  0.24147  1.0000
  H   H1720     1.0  0.70060  0.00253  0.20341  1.0000
  H   H1721     1.0  0.92012  0.36074  0.07178  1.0000
  H   H1722     1.0  0.55146  0.01445  0.17501  1.0000
  H   H1723     1.0  0.63999  0.45432  0.06739  1.0000
  H   H1724     1.0  0.95128  0.05633  0.12084  1.0000
  C   C974      1.0  0.88988  0.43259  0.07484  1.0000
  H   H1725     1.0  0.88888  0.42738  0.24349  1.0000
  C   C975      1.0  0.67979  0.00045  0.02319  1.0000
  C   C976      1.0  0.53433  0.47129  0.19490  1.0000
  H   H1726     1.0  0.79343  0.43019  0.18354  1.0000
  C   C977      1.0  0.76639  0.37652  0.18579  1.0000
  C   C978      1.0  0.69840  0.99283  0.01085  1.0000
  H   H1727     1.0  0.75649  0.33726  0.17579  1.0000
  H   H1728     1.0  0.92254  0.98933  0.08195  1.0000
  S   S218      1.0  0.58585  0.15913  0.24155  1.0000
  H   H1729     1.0  0.95950  0.44693  0.10560  1.0000
  C   C979      1.0  0.77949  0.98563  0.07268  1.0000
  H   H1730     1.0  0.76137  0.99912  0.04618  1.0000
  C   C980      1.0  0.84438  0.99481  0.02862  1.0000
  C   C981      1.0  0.53269  0.98202  0.15165  1.0000
  H   H1731     1.0  0.47637  0.30620  0.18429  1.0000
  C   C982      1.0  0.70549  0.47284  0.13032  1.0000
  H   H1732     1.0  0.74369  0.20846  0.23632  1.0000
  C   C983      1.0  0.74960  0.98103  0.14996  1.0000
  H   H1733     1.0  0.95963  0.98566  0.15091  1.0000
  H   H1734     1.0  0.96848  0.43378  0.15641  1.0000
  H   H1735     1.0  0.48807  0.43283  0.17485  1.0000
  S   S219      1.0  0.63964  0.98574  0.10692  1.0000
  H   H1736     1.0  0.96206  0.43739  0.20917  1.0000
  H   H1737     1.0  0.69357  0.99879  0.05870  1.0000
  H   H1738     1.0  0.48859  0.99556  0.06948  1.0000
  H   H1739     1.0  0.69538  0.18496  0.23440  1.0000
  H   H1740     1.0  0.50001  0.47364  0.00793  1.0000
  H   H1741     1.0  0.91873  0.47520  0.13975  1.0000
  C   C984      1.0  0.74881  0.47846  0.12234  1.0000
  H   H1742     1.0  0.73592  0.98143  0.00656  1.0000
  H   H1743     1.0  0.48399  0.98502  0.09983  1.0000
  C   C985      1.0  0.47503  0.98049  0.08194  1.0000
  H   H1744     1.0  0.84903  0.47854  0.05278  1.0000
  H   H1745     1.0  0.59079  0.47764  0.22091  1.0000
  C   C986      1.0  0.68424  0.47497  0.00418  1.0000
  C   C987      1.0  0.77391  0.47866  0.02440  1.0000
  H   H1746     1.0  0.85956  0.47268  0.43475  1.0000
  H   H1747     1.0  0.93059  0.01088  0.41095  1.0000
  H   H1748     1.0  0.76547  0.44171  0.37625  1.0000
  Fe  Fe110     1.0  0.82182  0.35856  0.42350  1.0000
  S   S220      1.0  0.79473  0.35856  0.45125  1.0000
  S   S221      1.0  0.81767  0.36832  0.38552  1.0000
  Fe  Fe111     1.0  0.83025  0.37944  0.47494  1.0000
  H   H1749     1.0  0.89274  0.41322  0.48684  1.0000
  Fe  Fe112     1.0  0.79031  0.32009  0.46286  1.0000
  S   S222      1.0  0.74817  0.28507  0.46512  1.0000
  S   S223      1.0  0.85722  0.38171  0.44610  1.0000
  S   S224      1.0  0.81609  0.31986  0.43391  1.0000
  H   H1750     1.0  0.95885  0.05252  0.41785  1.0000
  S   S225      1.0  0.86691  0.33379  0.30302  1.0000
  Fe  Fe113     1.0  0.60410  0.06621  0.47430  1.0000
  S   S226      1.0  0.58080  0.06949  0.44433  1.0000
  H   H1751     1.0  0.49202  0.04809  0.29992  1.0000
  Fe  Fe114     1.0  0.64573  0.12648  0.46991  1.0000
  S   S227      1.0  0.62337  0.13210  0.44095  1.0000
  S   S228      1.0  0.68539  0.16128  0.48110  1.0000
  Fe  Fe115     1.0  0.58795  0.10609  0.46209  1.0000
  H   H1752     1.0  0.93576  0.04996  0.48899  1.0000
  Fe  Fe116     1.0  0.61858  0.09523  0.42602  1.0000
  S   S229      1.0  0.62853  0.09556  0.38725  1.0000
  C   C988      1.0  0.96523  0.05373  0.43655  1.0000
  S   S230      1.0  0.64214  0.08968  0.45441  1.0000
  Fe  Fe117     1.0  0.58686  0.13279  0.26976  1.0000
  S   S231      1.0  0.57824  0.13401  0.30889  1.0000
  C   C989      1.0  0.61500  0.10742  0.36616  1.0000
  C   C990      1.0  0.62579  0.11376  0.34344  1.0000
  C   C991      1.0  0.61509  0.12252  0.32600  1.0000
  C   C992      1.0  0.59314  0.12457  0.33093  1.0000
  C   C993      1.0  0.58260  0.11867  0.35381  1.0000
  C   C994      1.0  0.59351  0.11020  0.37140  1.0000
  H   H1753     1.0  0.64248  0.11180  0.33928  1.0000
  H   H1754     1.0  0.62373  0.12758  0.30867  1.0000
  H   H1755     1.0  0.56579  0.12048  0.35790  1.0000
  H   H1756     1.0  0.58509  0.10554  0.38890  1.0000
  H   H1757     1.0  0.77412  0.34171  0.25920  1.0000
  H   H1758     1.0  0.51504  0.12483  0.47841  1.0000
  C   C995      1.0  0.55409  0.03826  0.33429  1.0000
  H   H1759     1.0  0.57348  0.01919  0.26727  1.0000
  C   C996      1.0  0.73179  0.25040  0.46812  1.0000
  C   C997      1.0  0.74343  0.23741  0.47859  1.0000
  C   C998      1.0  0.91461  0.00402  0.42399  1.0000
  C   C999      1.0  0.70277  0.19549  0.47524  1.0000
  C   C1000     1.0  0.69133  0.20832  0.46407  1.0000
  C   C1001     1.0  0.70568  0.23549  0.46067  1.0000
  H   H1760     1.0  0.64794  0.07684  0.30167  1.0000
  H   H1761     1.0  0.50385  0.04934  0.40969  1.0000
  H   H1762     1.0  0.67137  0.19734  0.45824  1.0000
  H   H1763     1.0  0.69641  0.24512  0.45233  1.0000
  C   C1002     1.0  0.84442  0.45458  0.42632  1.0000
  S   S232      1.0  0.61021  0.10276  0.49260  1.0000
  H   H1764     1.0  0.74176  0.32991  0.27090  1.0000
  C   C1003     1.0  0.83086  0.35811  0.36263  1.0000
  C   C1004     1.0  0.82754  0.36294  0.33891  1.0000
  C   C1005     1.0  0.83826  0.35541  0.32042  1.0000
  C   C1006     1.0  0.85242  0.34300  0.32553  1.0000
  C   C1007     1.0  0.85543  0.33790  0.34922  1.0000
  C   C1008     1.0  0.84467  0.34535  0.36768  1.0000
  H   H1765     1.0  0.81690  0.37280  0.33484  1.0000
  H   H1766     1.0  0.83595  0.35960  0.30226  1.0000
  H   H1767     1.0  0.86636  0.32834  0.35333  1.0000
  H   H1768     1.0  0.84740  0.34153  0.38584  1.0000
  H   H1769     1.0  0.89904  0.44850  0.26901  1.0000
  H   H1770     1.0  0.57611  0.05065  0.37951  1.0000
  H   H1771     1.0  0.53181  0.99483  0.30668  1.0000
  C   C1009     1.0  0.88508  0.27189  0.45733  1.0000
  H   H1772     1.0  0.87335  0.45172  0.40515  1.0000
  H   H1773     1.0  0.81386  0.24008  0.29544  1.0000
  C   C1010     1.0  0.81826  0.47779  0.45152  1.0000
  C   C1011     1.0  0.79491  0.43950  0.47616  1.0000
  C   C1012     1.0  0.92529  0.01327  0.44934  1.0000
  C   C1013     1.0  0.88322  0.46288  0.48901  1.0000
  C   C1014     1.0  0.85150  0.00334  0.47623  1.0000
  H   H1774     1.0  0.82999  0.27489  0.29449  1.0000
  C   C1015     1.0  0.91860  0.09286  0.44852  1.0000
  C   C1016     1.0  0.51053  0.03944  0.46982  1.0000
  C   C1017     1.0  0.48522  0.04873  0.49810  1.0000
  H   H1775     1.0  0.73821  0.20076  0.49085  1.0000
  C   C1018     1.0  0.93815  0.08367  0.45255  1.0000
  C   C1019     1.0  0.51452  0.04902  0.42572  1.0000
  H   H1776     1.0  0.81083  0.41827  0.43711  1.0000
  H   H1777     1.0  0.93562  0.00284  0.45443  1.0000
  H   H1778     1.0  0.75063  0.44613  0.40224  1.0000
  C   C1020     1.0  0.49648  0.04083  0.44711  1.0000
  C   C1021     1.0  0.55362  0.00571  0.27379  1.0000
  C   C1022     1.0  0.95892  0.41014  0.42448  1.0000
  C   C1023     1.0  0.96345  0.29382  0.49074  1.0000
  N   N53       1.0  0.71169  0.17982  0.40182  1.0000
  C   C1024     1.0  0.68380  0.17332  0.40438  1.0000
  C   C1025     1.0  0.71703  0.16369  0.41907  1.0000
  C   C1026     1.0  0.72875  0.20787  0.40888  1.0000
  C   C1027     1.0  0.71840  0.17615  0.37684  1.0000
  C   C1028     1.0  0.69623  0.15474  0.36163  1.0000
  C   C1029     1.0  0.67669  0.19191  0.39137  1.0000
  C   C1030     1.0  0.75823  0.21751  0.41126  1.0000
  C   C1031     1.0  0.70080  0.13400  0.41616  1.0000
  C   C1032     1.0  0.70714  0.12043  0.43584  1.0000
  C   C1033     1.0  0.70672  0.15023  0.33855  1.0000
  C   C1034     1.0  0.64757  0.17926  0.38659  1.0000
  C   C1035     1.0  0.77413  0.24699  0.41295  1.0000
  H   H1779     1.0  0.67901  0.17342  0.42341  1.0000
  H   H1780     1.0  0.67013  0.15326  0.39850  1.0000
  H   H1781     1.0  0.73756  0.16829  0.41786  1.0000
  H   H1782     1.0  0.71437  0.16853  0.43752  1.0000
  H   H1783     1.0  0.72239  0.21167  0.42616  1.0000
  H   H1784     1.0  0.72673  0.22086  0.39599  1.0000
  H   H1785     1.0  0.72567  0.19433  0.36647  1.0000
  H   H1786     1.0  0.73490  0.17227  0.37706  1.0000
  H   H1787     1.0  0.68164  0.16043  0.35692  1.0000
  H   H1788     1.0  0.68576  0.13602  0.37096  1.0000
  H   H1789     1.0  0.68257  0.20938  0.40247  1.0000
  H   H1790     1.0  0.68691  0.19837  0.37421  1.0000
  H   H1791     1.0  0.76543  0.21126  0.39596  1.0000
  H   H1792     1.0  0.76201  0.20977  0.42774  1.0000
  H   H1793     1.0  0.67969  0.12697  0.41690  1.0000
  H   H1794     1.0  0.70558  0.12800  0.39923  1.0000
  H   H1795     1.0  0.72800  0.12611  0.43546  1.0000
  H   H1796     1.0  0.70248  0.12540  0.45342  1.0000
  H   H1797     1.0  0.69538  0.09915  0.43340  1.0000
  H   H1798     1.0  0.71703  0.16841  0.32821  1.0000
  H   H1799     1.0  0.72020  0.14282  0.34224  1.0000
  H   H1800     1.0  0.69036  0.13564  0.32765  1.0000
  H   H1801     1.0  0.63641  0.17195  0.40322  1.0000
  H   H1802     1.0  0.64304  0.19358  0.37865  1.0000
  H   H1803     1.0  0.64128  0.16293  0.37398  1.0000
  H   H1804     1.0  0.79478  0.25314  0.41666  1.0000
  H   H1805     1.0  0.77324  0.25592  0.39604  1.0000
  H   H1806     1.0  0.76688  0.25426  0.42749  1.0000
  H   H1807     1.0  0.53129  0.06879  0.42842  1.0000
  H   H1808     1.0  0.79644  0.43594  0.40052  1.0000
  C   C1036     1.0  0.85588  0.98291  0.48172  1.0000
  H   H1809     1.0  0.90827  0.00569  0.46137  1.0000
  C   C1037     1.0  0.81186  0.25681  0.28974  1.0000
  H   H1810     1.0  0.96621  0.47045  0.48091  1.0000
  H   H1811     1.0  0.95497  0.09514  0.44081  1.0000
  H   H1812     1.0  0.58319  0.02746  0.34578  1.0000
  H   H1813     1.0  0.51040  0.06283  0.27330  1.0000
  C   C1038     1.0  0.50787  0.46071  0.49503  1.0000
  H   H1814     1.0  0.60081  0.20670  0.43423  1.0000
  H   H1815     1.0  0.77077  0.41670  0.43512  1.0000
  H   H1816     1.0  0.51096  0.08282  0.29740  1.0000
  H   H1817     1.0  0.51940  0.02720  0.46583  1.0000
  H   H1818     1.0  0.76747  0.44412  0.44190  1.0000
  S   S233      1.0  0.62455  0.13659  0.25793  1.0000
  C   C1039     1.0  0.90483  0.26440  0.49425  1.0000
  H   H1819     1.0  0.83255  0.43633  0.45992  1.0000
  H   H1820     1.0  0.95174  0.28515  0.47457  1.0000
  H   H1821     1.0  0.95138  0.38948  0.42905  1.0000
  N   N54       1.0  0.80476  0.44860  0.45135  1.0000
  C   C1040     1.0  0.60368  0.19002  0.43803  1.0000
  H   H1822     1.0  0.92781  0.43029  0.48762  1.0000
  H   H1823     1.0  0.52174  0.03530  0.42268  1.0000
  H   H1824     1.0  0.48344  0.41125  0.45195  1.0000
  H   H1825     1.0  0.91004  0.39591  0.48268  1.0000
  H   H1826     1.0  0.91147  0.08923  0.42997  1.0000
  H   H1827     1.0  0.56474  0.05894  0.34001  1.0000
  C   C1041     1.0  0.82246  0.43832  0.44423  1.0000
  S   S234      1.0  0.55444  0.11356  0.46407  1.0000
  H   H1828     1.0  0.64136  0.21067  0.47140  1.0000
  H   H1829     1.0  0.90698  0.04407  0.45683  1.0000
  N   N55       1.0  0.94213  0.04212  0.45286  1.0000
  H   H1830     1.0  0.62177  0.22499  0.47429  1.0000
  H   H1831     1.0  0.92078  0.30034  0.47305  1.0000
  H   H1832     1.0  0.53270  0.06601  0.32318  1.0000
  H   H1833     1.0  0.62309  0.19438  0.43162  1.0000
  H   H1834     1.0  0.50196  0.06884  0.49832  1.0000
  H   H1835     1.0  0.55136  0.08176  0.29743  1.0000
  C   C1042     1.0  0.91008  0.41209  0.49243  1.0000
  S   S235      1.0  0.82342  0.34089  0.48925  1.0000
  H   H1836     1.0  0.53348  0.03081  0.33952  1.0000
  H   H1837     1.0  0.47925  0.02186  0.44286  1.0000
  H   H1838     1.0  0.47669  0.33707  0.49587  1.0000
  H   H1839     1.0  0.58866  0.17286  0.42825  1.0000
  H   H1840     1.0  0.89210  0.29302  0.48965  1.0000
  H   H1841     1.0  0.62894  0.06866  0.27496  1.0000
  S   S236      1.0  0.83985  0.41424  0.50021  1.0000
  C   C1043     1.0  0.54683  0.12089  0.49192  1.0000
  H   H1842     1.0  0.54306  0.02438  0.38193  1.0000
  C   C1044     1.0  0.92611  0.35243  0.48908  1.0000
  H   H1843     1.0  0.88319  0.28670  0.44697  1.0000
  H   H1844     1.0  0.61011  0.06288  0.32627  1.0000
  H   H1845     1.0  0.80943  0.25590  0.27022  1.0000
  H   H1846     1.0  0.92051  0.05203  0.42802  1.0000
  H   H1847     1.0  0.59359  0.99003  0.47334  1.0000
  H   H1848     1.0  0.94496  0.41606  0.43081  1.0000
  H   H1849     1.0  0.84356  0.42155  0.40878  1.0000
  C   C1045     1.0  0.92572  0.05428  0.44711  1.0000
  H   H1850     1.0  0.89419  0.26351  0.44586  1.0000
  C   C1046     1.0  0.72900  0.21030  0.48224  1.0000
  S   S237      1.0  0.88360  0.33672  0.46070  1.0000
  C   C1047     1.0  0.60109  0.18419  0.46449  1.0000
  H   H1851     1.0  0.86151  0.04281  0.48265  1.0000
  H   H1852     1.0  0.86532  0.25650  0.46247  1.0000
  H   H1853     1.0  0.76338  0.24835  0.48452  1.0000
  C   C1048     1.0  0.85771  0.43974  0.41786  1.0000
  C   C1049     1.0  0.75396  0.30094  0.26915  1.0000
  C   C1050     1.0  0.62257  0.20722  0.47873  1.0000
  C   C1051     1.0  0.75402  0.32497  0.25971  1.0000
  H   H1854     1.0  0.52708  0.05930  0.47260  1.0000
  H   H1855     1.0  0.93669  0.01034  0.49514  1.0000
  N   N56       1.0  0.76478  0.28253  0.30661  1.0000
  C   C1052     1.0  0.77373  0.28988  0.33190  1.0000
  C   C1053     1.0  0.78478  0.27860  0.29370  1.0000
  C   C1054     1.0  0.76441  0.30522  0.29501  1.0000
  C   C1055     1.0  0.73804  0.25900  0.30453  1.0000
  C   C1056     1.0  0.72982  0.23778  0.32374  1.0000
  C   C1057     1.0  0.75854  0.29981  0.34677  1.0000
  C   C1058     1.0  0.90178  0.28450  0.47924  1.0000
  C   C1059     1.0  0.78844  0.25589  0.30189  1.0000
  H   H1856     1.0  0.93667  0.35451  0.47291  1.0000
  C   C1060     1.0  0.70431  0.21367  0.31687  1.0000
  C   C1061     1.0  0.76236  0.29803  0.37329  1.0000
  Fe  Fe118     1.0  0.84908  0.34281  0.45913  1.0000
  H   H1857     1.0  0.79450  0.30545  0.33239  1.0000
  H   H1858     1.0  0.77346  0.27359  0.34154  1.0000
  H   H1859     1.0  0.78004  0.27497  0.27464  1.0000
  H   H1860     1.0  0.80412  0.29660  0.29475  1.0000
  H   H1861     1.0  0.78419  0.32266  0.29547  1.0000
  H   H1862     1.0  0.75169  0.31060  0.30492  1.0000
  H   H1863     1.0  0.72286  0.26478  0.30506  1.0000
  H   H1864     1.0  0.73576  0.24974  0.28684  1.0000
  H   H1865     1.0  0.72670  0.24488  0.34088  1.0000
  H   H1866     1.0  0.74454  0.23190  0.32663  1.0000
  H   H1867     1.0  0.76581  0.32054  0.34264  1.0000
  H   H1868     1.0  0.73743  0.28880  0.34281  1.0000
  H   H1869     1.0  0.58433  0.21754  0.49030  1.0000
  C   C1062     1.0  0.87479  0.98731  0.49905  1.0000
  H   H1870     1.0  0.79182  0.25636  0.32118  1.0000
  H   H1871     1.0  0.77113  0.23725  0.29687  1.0000
  H   H1872     1.0  0.92802  0.11395  0.45211  1.0000
  H   H1873     1.0  0.90113  0.01094  0.41870  1.0000
  H   H1874     1.0  0.96017  0.41196  0.40491  1.0000
  H   H1875     1.0  0.69810  0.19905  0.33111  1.0000
  H   H1876     1.0  0.68872  0.21855  0.31411  1.0000
  H   H1877     1.0  0.70674  0.20501  0.30033  1.0000
  H   H1878     1.0  0.78336  0.30754  0.37779  1.0000
  H   H1879     1.0  0.75379  0.30800  0.38326  1.0000
  H   H1880     1.0  0.75258  0.27752  0.37895  1.0000
  C   C1063     1.0  0.76123  0.43661  0.39523  1.0000
  H   H1881     1.0  0.83728  0.46010  0.41057  1.0000
  H   H1882     1.0  0.53953  0.00852  0.26318  1.0000
  N   N57       1.0  0.55613  0.03638  0.30772  1.0000
  C   C1064     1.0  0.55143  0.00994  0.30064  1.0000
  C   C1065     1.0  0.53495  0.03979  0.29635  1.0000
  C   C1066     1.0  0.58191  0.05765  0.29888  1.0000
  H   H1883     1.0  0.55003  0.00201  0.34809  1.0000
  C   C1067     1.0  0.86544  0.02754  0.48746  1.0000
  C   C1068     1.0  0.53385  0.06430  0.30376  1.0000
  H   H1884     1.0  0.91886  0.43560  0.25830  1.0000
  C   C1069     1.0  0.56299  0.02968  0.37629  1.0000
  C   C1070     1.0  0.51030  0.06436  0.29287  1.0000
  H   H1885     1.0  0.74865  0.41528  0.39658  1.0000
  H   H1886     1.0  0.56516  0.00525  0.30962  1.0000
  C   C1071     1.0  0.60630  0.05690  0.30744  1.0000
  H   H1887     1.0  0.51555  0.02269  0.30011  1.0000
  H   H1888     1.0  0.53705  0.04100  0.27679  1.0000
  H   H1889     1.0  0.58199  0.05838  0.27929  1.0000
  H   H1890     1.0  0.58490  0.07682  0.30430  1.0000
  C   C1072     1.0  0.63039  0.07561  0.29342  1.0000
  H   H1891     1.0  0.88636  0.45345  0.47408  1.0000
  H   H1892     1.0  0.90186  0.08273  0.46073  1.0000
  C   C1073     1.0  0.56331  0.02316  0.35018  1.0000
  H   H1893     1.0  0.83704  0.00041  0.46305  1.0000
  H   H1894     1.0  0.67368  0.24439  0.49034  1.0000
  C   C1074     1.0  0.78140  0.43820  0.43520  1.0000
  C   C1075     1.0  0.48114  0.32120  0.49828  1.0000
  H   H1895     1.0  0.63278  0.09527  0.29308  1.0000
  H   H1896     1.0  0.60417  0.03748  0.30553  1.0000
  H   H1897     1.0  0.75877  0.40228  0.47069  1.0000
  H   H1898     1.0  0.60256  0.16654  0.46702  1.0000
  S   S238      1.0  0.58295  0.02830  0.49674  1.0000
  Fe  Fe119     1.0  0.85907  0.33630  0.26407  1.0000
  H   H1899     1.0  0.47648  0.99294  0.47326  1.0000
  H   H1900     1.0  0.88480  0.24933  0.49919  1.0000
  C   C1076     1.0  0.95063  0.04823  0.47847  1.0000
  H   H1901     1.0  0.49016  0.05536  0.44920  1.0000
  C   C1077     1.0  0.78665  0.44568  0.40877  1.0000
  H   H1902     1.0  0.73370  0.28463  0.26803  1.0000
  C   C1078     1.0  0.52636  0.12605  0.49388  1.0000
  H   H1903     1.0  0.58139  0.17987  0.46986  1.0000
  H   H1904     1.0  0.86647  0.43499  0.43303  1.0000
  C   C1079     1.0  0.58076  0.98058  0.48807  1.0000
  H   H1905     1.0  0.76579  0.29666  0.25689  1.0000
  H   H1906     1.0  0.56983  0.01883  0.38732  1.0000
  H   H1907     1.0  0.96868  0.02371  0.48300  1.0000
  C   C1080     1.0  0.89944  0.34375  0.48811  1.0000
  C   C1081     1.0  0.90590  0.44313  0.25286  1.0000
  H   H1908     1.0  0.91188  0.25421  0.48253  1.0000
  H   H1909     1.0  0.78354  0.44855  0.48258  1.0000
  N   N58       1.0  0.49407  0.02975  0.49185  1.0000
  S   S239      1.0  0.82032  0.33042  0.25364  1.0000
  H   H1910     1.0  0.78771  0.39968  0.47259  1.0000
  C   C1082     1.0  0.77784  0.40985  0.47964  1.0000
  H   H1911     1.0  0.49153  0.45693  0.48304  1.0000
  C   C1083     1.0  0.95537  0.02856  0.49240  1.0000
  H   H1912     1.0  0.94485  0.08834  0.47116  1.0000
  H   H1913     1.0  0.79859  0.46686  0.40624  1.0000
  H   H1914     1.0  0.48134  0.31290  0.48076  1.0000
  H   H1915     1.0  0.96844  0.06750  0.47994  1.0000
  H   H1916     1.0  0.52481  0.46386  0.48428  1.0000
  H   H1917     1.0  0.81149  0.44582  0.48867  1.0000
  H   H1918     1.0  0.47218  0.04905  0.48414  1.0000
  H   H1919     1.0  0.64415  0.18385  0.49947  1.0000
  H   H1920     1.0  0.57333  0.47913  0.48097  1.0000
  H   H1921     1.0  0.97073  0.28099  0.49716  1.0000
  Fe  Fe120     1.0  0.51298  0.35537  0.56166  1.0000
  H   H1922     1.0  0.86090  0.37340  0.56080  1.0000
  S   S240      1.0  0.51749  0.31982  0.55403  1.0000
  Fe  Fe121     1.0  0.53390  0.41452  0.55039  1.0000
  S   S241      1.0  0.50834  0.41684  0.57843  1.0000
  H   H1923     1.0  0.50607  0.27556  0.61104  1.0000
  Fe  Fe122     1.0  0.51881  0.39243  0.60125  1.0000
  S   S242      1.0  0.52805  0.39903  0.64049  1.0000
  Fe  Fe123     1.0  0.95446  0.15125  0.56392  1.0000
  C   C1084     1.0  0.93766  0.15650  0.64297  1.0000
  S   S243      1.0  0.54724  0.39297  0.57444  1.0000
  S   S244      1.0  0.50193  0.37673  0.53527  1.0000
  S   S245      1.0  0.52451  0.13901  0.72339  1.0000
  Fe  Fe124     1.0  0.93153  0.09469  0.54304  1.0000
  C   C1085     1.0  0.91191  0.40799  0.57010  1.0000
  S   S246      1.0  0.90187  0.06444  0.51677  1.0000
  H   H1924     1.0  0.59834  0.23449  0.51759  1.0000
  H   H1925     1.0  0.87008  0.41652  0.58143  1.0000
  H   H1926     1.0  0.54996  0.33276  0.64804  1.0000
  C   C1086     1.0  0.55842  0.20524  0.51971  1.0000
  C   C1087     1.0  0.92459  0.26043  0.71421  1.0000
  Fe  Fe125     1.0  0.94558  0.10541  0.59567  1.0000
  S   S247      1.0  0.93233  0.08999  0.63260  1.0000
  H   H1927     1.0  0.48463  0.43801  0.61444  1.0000
  S   S248      1.0  0.91925  0.11242  0.57213  1.0000
  S   S249      1.0  0.93824  0.33423  0.71351  1.0000
  C   C1088     1.0  0.53584  0.13570  0.53560  1.0000
  C   C1089     1.0  0.67078  0.23800  0.50903  1.0000
  H   H1928     1.0  0.92604  0.40490  0.52381  1.0000
  H   H1929     1.0  0.97042  0.39007  0.72112  1.0000
  C   C1090     1.0  0.90794  0.28299  0.53351  1.0000
  H   H1930     1.0  0.53255  0.31095  0.68653  1.0000
  C   C1091     1.0  0.50043  0.13092  0.70134  1.0000
  Fe  Fe126     1.0  0.47750  0.37854  0.56445  1.0000
  H   H1931     1.0  0.65221  0.15640  0.52792  1.0000
  H   H1932     1.0  0.91856  0.21783  0.56300  1.0000
  C   C1092     1.0  0.48890  0.13032  0.65970  1.0000
  C   C1093     1.0  0.50774  0.13663  0.67753  1.0000
  S   S250      1.0  0.95562  0.08542  0.56743  1.0000
  H   H1933     1.0  0.89794  0.43634  0.52395  1.0000
  H   H1934     1.0  0.49479  0.13489  0.64144  1.0000
  H   H1935     1.0  0.52807  0.14600  0.67286  1.0000
  H   H1936     1.0  0.86400  0.09812  0.54504  1.0000
  H   H1937     1.0  0.50084  0.32946  0.50619  1.0000
  H   H1938     1.0  0.87081  0.06141  0.55503  1.0000
  S   S251      1.0  0.96462  0.13435  0.53248  1.0000
  H   H1939     1.0  0.49817  0.37493  0.72233  1.0000
  H   H1940     1.0  0.90353  0.01512  0.52359  1.0000
  C   C1094     1.0  0.95662  0.10049  0.65471  1.0000
  C   C1095     1.0  0.49805  0.28596  0.56000  1.0000
  H   H1941     1.0  0.53120  0.39767  0.69110  1.0000
  C   C1096     1.0  0.52093  0.25230  0.62564  1.0000
  H   H1942     1.0  0.93906  0.45852  0.57144  1.0000
  C   C1097     1.0  0.49231  0.24222  0.55690  1.0000
  C   C1098     1.0  0.50736  0.26926  0.55344  1.0000
  N   N59       1.0  0.94787  0.25674  0.71164  1.0000
  H   H1943     1.0  0.55462  0.03556  0.53601  1.0000
  H   H1944     1.0  0.49973  0.22974  0.55146  1.0000
  H   H1945     1.0  0.52631  0.27728  0.54538  1.0000
  H   H1946     1.0  0.48014  0.20211  0.65337  1.0000
  H   H1947     1.0  0.49483  0.26300  0.66409  1.0000
  H   H1948     1.0  0.86847  0.42790  0.55311  1.0000
  H   H1949     1.0  0.79043  0.40972  0.51598  1.0000
  H   H1950     1.0  0.52950  0.06828  0.52383  1.0000
  C   C1099     1.0  0.85045  0.09267  0.56024  1.0000
  S   S252      1.0  0.55520  0.44631  0.52204  1.0000
  C   C1100     1.0  0.55590  0.12993  0.53378  1.0000
  C   C1101     1.0  0.54017  0.32859  0.63066  1.0000
  H   H1951     1.0  0.64322  0.14777  0.72222  1.0000
  H   H1952     1.0  0.86505  0.33341  0.50837  1.0000
  C   C1102     1.0  0.88449  0.03234  0.50448  1.0000
  H   H1953     1.0  0.50280  0.31438  0.61449  1.0000
  H   H1954     1.0  0.54513  0.07637  0.74621  1.0000
  H   H1955     1.0  0.65105  0.19557  0.54283  1.0000
  C   C1103     1.0  0.88768  0.03477  0.59484  1.0000
  H   H1956     1.0  0.61673  0.17568  0.54799  1.0000
  H   H1957     1.0  0.54322  0.31375  0.62176  1.0000
  H   H1958     1.0  0.96043  0.30410  0.52644  1.0000
  H   H1959     1.0  0.93513  0.24002  0.67690  1.0000
  H   H1960     1.0  0.92882  0.27509  0.75057  1.0000
  C   C1104     1.0  0.56117  0.12225  0.51202  1.0000
  H   H1961     1.0  0.61811  0.13690  0.53525  1.0000
  C   C1105     1.0  0.95264  0.25619  0.68546  1.0000
  H   H1962     1.0  0.92898  0.27974  0.70754  1.0000
  H   H1963     1.0  0.92003  0.20566  0.53404  1.0000
  H   H1964     1.0  0.79077  0.99101  0.62851  1.0000
  H   H1965     1.0  0.85627  0.38709  0.53394  1.0000
  C   C1106     1.0  0.50519  0.27784  0.65016  1.0000
  S   S253      1.0  0.94140  0.36598  0.55906  1.0000
  H   H1966     1.0  0.90298  0.38902  0.56102  1.0000
  H   H1967     1.0  0.95387  0.04409  0.52697  1.0000
  H   H1968     1.0  0.53552  0.04349  0.55557  1.0000
  H   H1969     1.0  0.55006  0.99218  0.53278  1.0000
  C   C1107     1.0  0.47783  0.36606  0.65608  1.0000
  H   H1970     1.0  0.94065  0.26139  0.54051  1.0000
  H   H1971     1.0  0.95981  0.36615  0.51148  1.0000
  H   H1972     1.0  0.57500  0.35933  0.61456  1.0000
  S   S254      1.0  0.48187  0.16171  0.59567  1.0000
  C   C1108     1.0  0.86218  0.44843  0.50413  1.0000
  C   C1109     1.0  0.87452  0.41539  0.56251  1.0000
  H   H1973     1.0  0.88988  0.19162  0.55009  1.0000
  N   N60       1.0  0.84535  0.02560  0.57302  1.0000
  C   C1110     1.0  0.86794  0.02073  0.57456  1.0000
  H   H1974     1.0  0.89310  0.46852  0.56476  1.0000
  C   C1111     1.0  0.85644  0.05435  0.56967  1.0000
  H   H1975     1.0  0.51981  0.23716  0.73661  1.0000
  H   H1976     1.0  0.48939  0.18178  0.68877  1.0000
  C   C1112     1.0  0.62877  0.16634  0.74622  1.0000
  C   C1113     1.0  0.83660  0.06346  0.56428  1.0000
  C   C1114     1.0  0.82939  0.01798  0.59534  1.0000
  H   H1977     1.0  0.55205  0.36893  0.62380  1.0000
  H   H1978     1.0  0.76122  0.41191  0.51340  1.0000
  C   C1115     1.0  0.95811  0.34853  0.66863  1.0000
  H   H1979     1.0  0.93065  0.44622  0.53101  1.0000
  H   H1980     1.0  0.93863  0.34366  0.66353  1.0000
  C   C1116     1.0  0.91035  0.43003  0.53327  1.0000
  H   H1981     1.0  0.76025  0.38166  0.50776  1.0000
  C   C1117     1.0  0.97119  0.22182  0.56419  1.0000
  H   H1982     1.0  0.64080  0.22720  0.53598  1.0000
  H   H1983     1.0  0.86731  0.06520  0.58572  1.0000
  H   H1984     1.0  0.53623  0.33672  0.72212  1.0000
  C   C1118     1.0  0.50233  0.26299  0.62668  1.0000
  H   H1985     1.0  0.91764  0.47630  0.54258  1.0000
  H   H1986     1.0  0.47912  0.03933  0.53636  1.0000
  H   H1987     1.0  0.51672  0.24010  0.60956  1.0000
  H   H1988     1.0  0.86126  0.99984  0.57631  1.0000
  H   H1989     1.0  0.82303  0.05909  0.57925  1.0000
  H   H1990     1.0  0.95713  0.23413  0.59376  1.0000
  C   C1119     1.0  0.59585  0.19639  0.51523  1.0000
  H   H1991     1.0  0.87905  0.02665  0.55769  1.0000
  C   C1120     1.0  0.54856  0.04999  0.53998  1.0000
  C   C1121     1.0  0.51070  0.31918  0.63286  1.0000
  C   C1122     1.0  0.63645  0.15493  0.53952  1.0000
  C   C1123     1.0  0.81846  0.98984  0.60393  1.0000
  H   H1992     1.0  0.87394  0.24400  0.72925  1.0000
  H   H1993     1.0  0.54581  0.34906  0.59761  1.0000
  H   H1994     1.0  0.89298  0.27890  0.73201  1.0000
  H   H1995     1.0  0.58926  0.11236  0.74865  1.0000
  H   H1996     1.0  0.90951  0.37881  0.62461  1.0000
  H   H1997     1.0  0.86153  0.10321  0.57628  1.0000
  H   H1998     1.0  0.82162  0.99862  0.64168  1.0000
  C   C1124     1.0  0.89873  0.34682  0.53076  1.0000
  C   C1125     1.0  0.85593  0.38762  0.55350  1.0000
  H   H1999     1.0  0.54133  0.26837  0.62466  1.0000
  H   H2000     1.0  0.54432  0.18685  0.51096  1.0000
  C   C1126     1.0  0.49240  0.37229  0.70392  1.0000
  N   N61       1.0  0.90322  0.42558  0.55923  1.0000
  C   C1127     1.0  0.90615  0.40215  0.59686  1.0000
  H   H2001     1.0  0.49962  0.01908  0.52732  1.0000
  H   H2002     1.0  0.81489  0.35910  0.55321  1.0000
  C   C1128     1.0  0.52072  0.13321  0.51573  1.0000
  H   H2003     1.0  0.94324  0.28518  0.67136  1.0000
  H   H2004     1.0  0.95857  0.18297  0.72215  1.0000
  S   S255      1.0  0.48577  0.35435  0.58948  1.0000
  H   H2005     1.0  0.82512  0.05409  0.54810  1.0000
  C   C1129     1.0  0.96338  0.34547  0.69226  1.0000
  H   H2006     1.0  0.95989  0.20199  0.74731  1.0000
  C   C1130     1.0  0.90748  0.02558  0.59641  1.0000
  H   H2007     1.0  0.94684  0.20834  0.69590  1.0000
  C   C1131     1.0  0.90796  0.21000  0.54613  1.0000
  Fe  Fe127     1.0  0.49047  0.14034  0.56759  1.0000
  H   H2008     1.0  0.51867  0.24030  0.64140  1.0000
  H   H2009     1.0  0.96505  0.19628  0.64968  1.0000
  H   H2010     1.0  0.67611  0.22275  0.51099  1.0000
  H   H2011     1.0  0.48220  0.24639  0.62506  1.0000
  N   N62       1.0  0.49522  0.29670  0.64936  1.0000
  H   H2012     1.0  0.54944  0.06175  0.50415  1.0000
  H   H2013     1.0  0.90815  0.24591  0.70322  1.0000
  C   C1132     1.0  0.94132  0.23126  0.72317  1.0000
  H   H2014     1.0  0.82581  0.37806  0.57998  1.0000
  H   H2015     1.0  0.64612  0.17750  0.71142  1.0000
  C   C1133     1.0  0.82788  0.37877  0.56044  1.0000
  H   H2016     1.0  0.83596  0.09875  0.55628  1.0000
  C   C1134     1.0  0.51109  0.38516  0.68618  1.0000
  H   H2017     1.0  0.50195  0.44333  0.50619  1.0000
  H   H2018     1.0  0.89101  0.23415  0.54863  1.0000
  H   H2019     1.0  0.92923  0.18118  0.73279  1.0000
  C   C1135     1.0  0.97049  0.27892  0.72405  1.0000
  H   H2020     1.0  0.82164  0.39206  0.55300  1.0000
  H   H2021     1.0  0.54433  0.10616  0.74604  1.0000
  C   C1136     1.0  0.63297  0.17847  0.53644  1.0000
  H   H2022     1.0  0.94133  0.15743  0.62363  1.0000
  C   C1137     1.0  0.55402  0.35301  0.61576  1.0000
  H   H2023     1.0  0.96895  0.02431  0.52687  1.0000
  H   H2024     1.0  0.53275  0.34064  0.67944  1.0000
  H   H2025     1.0  0.57657  0.11780  0.51080  1.0000
  H   H2026     1.0  0.63354  0.18649  0.75013  1.0000
  C   C1138     1.0  0.62753  0.18182  0.51020  1.0000
  C   C1139     1.0  0.50392  0.38218  0.66219  1.0000
  C   C1140     1.0  0.49486  0.30609  0.67411  1.0000
  C   C1141     1.0  0.52119  0.32103  0.68722  1.0000
  C   C1142     1.0  0.88905  0.01195  0.51039  1.0000
  C   C1143     1.0  0.57291  0.99471  0.50226  1.0000
  H   H2027     1.0  0.84407  0.98786  0.53774  1.0000
  H   H2028     1.0  0.84067  0.03123  0.61012  1.0000
  H   H2029     1.0  0.56748  0.13160  0.54917  1.0000
  H   H2030     1.0  0.50692  0.30565  0.72250  1.0000
  S   S256      1.0  0.53108  0.14749  0.56241  1.0000
  H   H2031     1.0  0.68859  0.25566  0.54280  1.0000
  S   S257      1.0  0.95265  0.18834  0.57213  1.0000
  H   H2032     1.0  0.66805  0.17856  0.73405  1.0000
  H   H2033     1.0  0.59605  0.19499  0.53483  1.0000
  H   H2034     1.0  0.88516  0.39384  0.60056  1.0000
  H   H2035     1.0  0.87796  0.03119  0.61224  1.0000
  C   C1144     1.0  0.51632  0.21925  0.72742  1.0000
  C   C1145     1.0  0.90127  0.22927  0.53501  1.0000
  C   C1146     1.0  0.92553  0.35634  0.53171  1.0000
  C   C1147     1.0  0.82872  0.01189  0.55162  1.0000
  C   C1148     1.0  0.96636  0.27946  0.64586  1.0000
  H   H2036     1.0  0.50862  0.33611  0.63805  1.0000
  N   N63       1.0  0.92164  0.27476  0.51607  1.0000
  H   H2037     1.0  0.53656  0.19723  0.72471  1.0000
  H   H2038     1.0  0.89866  0.05592  0.59163  1.0000
  C   C1149     1.0  0.53856  0.21452  0.73411  1.0000
  H   H2039     1.0  0.93012  0.09428  0.68322  1.0000
  C   C1150     1.0  0.92078  0.29142  0.55826  1.0000
  H   H2040     1.0  0.88737  0.26752  0.53583  1.0000
  C   C1151     1.0  0.55634  0.98173  0.52150  1.0000
  C   C1152     1.0  0.85863  0.46152  0.52331  1.0000
  H   H2041     1.0  0.52587  0.28752  0.65558  1.0000
  C   C1153     1.0  0.90371  0.29640  0.57515  1.0000
  H   H2042     1.0  0.51737  0.22255  0.70809  1.0000
  H   H2043     1.0  0.88771  0.21926  0.52013  1.0000
  H   H2044     1.0  0.95652  0.17529  0.67512  1.0000
  H   H2045     1.0  0.93505  0.39040  0.60300  1.0000
  H   H2046     1.0  0.90991  0.24045  0.74864  1.0000
  H   H2047     1.0  0.55740  0.23152  0.72912  1.0000
  C   C1154     1.0  0.64775  0.16757  0.72740  1.0000
  H   H2048     1.0  0.48302  0.23765  0.73244  1.0000
  H   H2049     1.0  0.47732  0.05199  0.63205  1.0000
  C   C1155     1.0  0.51715  0.32462  0.71335  1.0000
  H   H2050     1.0  0.48930  0.17794  0.72906  1.0000
  H   H2051     1.0  0.88801  0.34446  0.54688  1.0000
  H   H2052     1.0  0.93963  0.30964  0.55679  1.0000
  H   H2053     1.0  0.92414  0.27652  0.56655  1.0000
  H   H2054     1.0  0.61086  0.16304  0.50447  1.0000
  C   C1156     1.0  0.95010  0.10095  0.67849  1.0000
  C   C1157     1.0  0.95971  0.28138  0.67160  1.0000
  H   H2055     1.0  0.89780  0.00484  0.60140  1.0000
  H   H2056     1.0  0.91220  0.44962  0.59063  1.0000
  H   H2057     1.0  0.48130  0.28948  0.68537  1.0000
  H   H2058     1.0  0.94500  0.23395  0.74262  1.0000
  H   H2059     1.0  0.58092  0.17678  0.50926  1.0000
  H   H2060     1.0  0.96841  0.25183  0.68204  1.0000
  H   H2061     1.0  0.96456  0.41478  0.70957  1.0000
  H   H2062     1.0  0.91408  0.30396  0.59222  1.0000
  H   H2063     1.0  0.89926  0.31098  0.56770  1.0000
  H   H2064     1.0  0.88524  0.27821  0.57858  1.0000
  C   C1158     1.0  0.94771  0.29788  0.51047  1.0000
  H   H2065     1.0  0.96691  0.27787  0.74343  1.0000
  H   H2066     1.0  0.81224  0.02058  0.59312  1.0000
  H   H2067     1.0  0.70997  0.26790  0.51767  1.0000
  C   C1159     1.0  0.51085  0.02786  0.51101  1.0000
  H   H2068     1.0  0.84249  0.45085  0.53517  1.0000
  H   H2069     1.0  0.91756  0.02833  0.57924  1.0000
  C   C1160     1.0  0.93919  0.35891  0.51087  1.0000
  H   H2070     1.0  0.50521  0.13761  0.51698  1.0000
  C   C1161     1.0  0.96898  0.24034  0.57802  1.0000
  C   C1162     1.0  0.91778  0.45143  0.57169  1.0000
  C   C1163     1.0  0.53499  0.05374  0.51863  1.0000
  C   C1164     1.0  0.90920  0.40727  0.51902  1.0000
  H   H2071     1.0  0.92015  0.21712  0.72138  1.0000
  C   C1165     1.0  0.68986  0.26116  0.52389  1.0000
  C   C1166     1.0  0.91390  0.38266  0.60548  1.0000
  H   H2072     1.0  0.64165  0.15373  0.55816  1.0000
  H   H2073     1.0  0.60902  0.15598  0.73839  1.0000
  H   H2074     1.0  0.55823  0.20198  0.53908  1.0000
  H   H2075     1.0  0.92091  0.15951  0.64598  1.0000
  H   H2076     1.0  0.93320  0.41629  0.56753  1.0000
  C   C1167     1.0  0.48984  0.19604  0.73493  1.0000
  H   H2077     1.0  0.89138  0.38882  0.52258  1.0000
  H   H2078     1.0  0.90294  0.36406  0.59575  1.0000
  H   H2079     1.0  0.96924  0.43628  0.50649  1.0000
  H   H2080     1.0  0.80897  0.00945  0.55364  1.0000
  C   C1168     1.0  0.64227  0.22851  0.51634  1.0000
  H   H2081     1.0  0.55205  0.21960  0.51655  1.0000
  H   H2082     1.0  0.96421  0.11106  0.71441  1.0000
  H   H2083     1.0  0.50558  0.33447  0.71532  1.0000
  C   C1169     1.0  0.88936  0.26022  0.73963  1.0000
  H   H2084     1.0  0.94983  0.26283  0.63684  1.0000
  C   C1170     1.0  0.95033  0.19438  0.72994  1.0000
  C   C1171     1.0  0.58560  0.21521  0.50961  1.0000
  H   H2085     1.0  0.48709  0.08340  0.53386  1.0000
  H   H2086     1.0  0.63865  0.24453  0.51161  1.0000
  H   H2087     1.0  0.93246  0.13697  0.64954  1.0000
  C   C1172     1.0  0.91431  0.25875  0.73975  1.0000
  H   H2088     1.0  0.90671  0.29977  0.52649  1.0000
  H   H2089     1.0  0.91729  0.41988  0.60766  1.0000
  H   H2090     1.0  0.56620  0.06863  0.54442  1.0000
  C   C1173     1.0  0.77215  0.40299  0.50582  1.0000
  H   H2091     1.0  0.92224  0.03699  0.61014  1.0000
  H   H2092     1.0  0.51789  0.01452  0.50527  1.0000
  H   H2093     1.0  0.48729  0.31981  0.67401  1.0000
  C   C1174     1.0  0.92596  0.25375  0.52605  1.0000
  C   C1175     1.0  0.96941  0.11050  0.69620  1.0000
  C   C1176     1.0  0.95494  0.21668  0.71356  1.0000
  H   H2094     1.0  0.68584  0.27739  0.52207  1.0000
  N   N64       1.0  0.62208  0.20353  0.50513  1.0000
  C   C1177     1.0  0.96683  0.03915  0.51684  1.0000
  C   C1178     1.0  0.47407  0.11875  0.70716  1.0000
  H   H2095     1.0  0.48033  0.21866  0.69436  1.0000
  C   C1179     1.0  0.96152  0.17723  0.65608  1.0000
  C   C1180     1.0  0.88572  0.34066  0.50899  1.0000
  C   C1181     1.0  0.91344  0.47326  0.56176  1.0000
  H   H2096     1.0  0.83709  0.02397  0.53546  1.0000
  C   C1182     1.0  0.47356  0.27521  0.57054  1.0000
  H   H2097     1.0  0.97067  0.29747  0.63635  1.0000
  H   H2098     1.0  0.83367  0.98431  0.60506  1.0000
  C   C1183     1.0  0.82552  0.98520  0.54484  1.0000
  C   C1184     1.0  0.80657  0.98618  0.62855  1.0000
  H   H2099     1.0  0.94558  0.31486  0.50588  1.0000
  H   H2100     1.0  0.93472  0.24697  0.51243  1.0000
  H   H2101     1.0  0.47194  0.36385  0.63776  1.0000
  H   H2102     1.0  0.80944  0.98458  0.50993  1.0000
  H   H2103     1.0  0.47163  0.16896  0.64921  1.0000
  Fe  Fe128     1.0  0.84148  0.43773  0.88118  1.0000
  H   H2104     1.0  0.51517  0.47325  0.81504  1.0000
  S   S258      1.0  0.84890  0.41355  0.85312  1.0000
  Fe  Fe129     1.0  0.80247  0.45683  0.89659  1.0000
  C   C1185     1.0  0.76527  0.99224  0.98006  1.0000
  S   S259      1.0  0.76059  0.45023  0.89787  1.0000
  H   H2105     1.0  0.54049  0.99633  0.87797  1.0000
  S   S260      1.0  0.88581  0.02952  0.89286  1.0000
  Fe  Fe130     1.0  0.83883  0.45296  0.93304  1.0000
  S   S261      1.0  0.83996  0.44441  0.97206  1.0000
  H   H2106     1.0  0.71990  0.02820  0.94255  1.0000
  S   S262      1.0  0.80883  0.42394  0.90801  1.0000
  H   H2107     1.0  0.49093  0.12451  0.90742  1.0000
  S   S263      1.0  0.49185  0.13655  0.82654  1.0000
  H   H2108     1.0  0.96832  0.05294  0.80631  1.0000
  H   H2109     1.0  0.50358  0.45019  0.97020  1.0000
  S   S264      1.0  0.53943  0.16190  0.78930  1.0000
  Fe  Fe131     1.0  0.52213  0.12680  0.81340  1.0000
  S   S265      1.0  0.54412  0.11529  0.84076  1.0000
  Fe  Fe132     1.0  0.50680  0.16912  0.79984  1.0000
  S   S266      1.0  0.51601  0.21155  0.80157  1.0000
  S   S267      1.0  0.49674  0.10023  0.78450  1.0000
  H   H2110     1.0  0.69621  0.47179  0.82376  1.0000
  Fe  Fe133     1.0  0.65210  0.00647  0.89442  1.0000
  H   H2111     1.0  0.76735  0.99336  0.96050  1.0000
  S   S268      1.0  0.69268  0.01109  0.88692  1.0000
  Fe  Fe134     1.0  0.61188  0.02618  0.88406  1.0000
  S   S269      1.0  0.58543  0.00090  0.91305  1.0000
  S   S270      1.0  0.59806  0.04525  0.85584  1.0000
  Fe  Fe135     1.0  0.62156  0.01273  0.93469  1.0000
  H   H2112     1.0  0.87028  0.43129  0.77872  1.0000
  H   H2113     1.0  0.49002  0.01291  0.90392  1.0000
  H   H2114     1.0  0.64677  0.16677  0.82669  1.0000
  S   S271      1.0  0.64806  0.04048  0.90683  1.0000
  S   S272      1.0  0.61852  0.99469  0.86896  1.0000
  S   S273      1.0  0.96378  0.37326  0.77473  1.0000
  S   S274      1.0  0.91994  0.31203  0.78046  1.0000
  Fe  Fe136     1.0  0.49345  0.36880  0.79589  1.0000
  C   C1186     1.0  0.72830  0.00197  0.97762  1.0000
  S   S275      1.0  0.53316  0.40349  0.80026  1.0000
  H   H2115     1.0  0.59922  0.12853  0.82138  1.0000
  C   C1187     1.0  0.67234  0.47480  0.98014  1.0000
  Fe  Fe137     1.0  0.93789  0.34782  0.80394  1.0000
  S   S276      1.0  0.92471  0.36687  0.83260  1.0000
  C   C1188     1.0  0.74913  0.99038  0.88687  1.0000
  C   C1189     1.0  0.51829  0.47001  0.83379  1.0000
  C   C1190     1.0  0.56124  0.42634  0.87609  1.0000
  C   C1191     1.0  0.56689  0.44523  0.85894  1.0000
  C   C1192     1.0  0.55828  0.43798  0.83565  1.0000
  C   C1193     1.0  0.54308  0.41186  0.82964  1.0000
  C   C1194     1.0  0.53671  0.39290  0.84692  1.0000
  C   C1195     1.0  0.54598  0.40015  0.87014  1.0000
  H   H2116     1.0  0.74278  0.02181  0.98380  1.0000
  H   H2117     1.0  0.56319  0.45268  0.82230  1.0000
  H   H2118     1.0  0.52524  0.37266  0.84227  1.0000
  H   H2119     1.0  0.54157  0.38547  0.88339  1.0000
  H   H2120     1.0  0.77856  0.01153  0.98787  1.0000
  H   H2121     1.0  0.95010  0.41433  0.80176  1.0000
  C   C1196     1.0  0.69815  0.01853  0.97640  1.0000
  C   C1197     1.0  0.49658  0.22683  0.80234  1.0000
  C   C1198     1.0  0.64067  0.13152  0.84248  1.0000
  C   C1199     1.0  0.95907  0.29460  0.86825  1.0000
  H   H2122     1.0  0.75926  0.42380  0.94430  1.0000
  C   C1200     1.0  0.49395  0.26657  0.79793  1.0000
  C   C1201     1.0  0.50814  0.25332  0.79673  1.0000
  H   H2123     1.0  0.90954  0.08734  0.94930  1.0000
  H   H2124     1.0  0.93266  0.21019  0.80402  1.0000
  H   H2125     1.0  0.50331  0.28696  0.79377  1.0000
  H   H2126     1.0  0.52837  0.26378  0.79168  1.0000
  C   C1202     1.0  0.55673  0.09369  0.84524  1.0000
  C   C1203     1.0  0.55663  0.07723  0.82750  1.0000
  C   C1204     1.0  0.56895  0.06237  0.83124  1.0000
  C   C1205     1.0  0.58099  0.06301  0.85298  1.0000
  C   C1206     1.0  0.58035  0.07884  0.87098  1.0000
  C   C1207     1.0  0.56854  0.09415  0.86706  1.0000
  H   H2127     1.0  0.54757  0.07635  0.81070  1.0000
  H   H2128     1.0  0.56927  0.05034  0.81707  1.0000
  H   H2129     1.0  0.58980  0.08002  0.88768  1.0000
  H   H2130     1.0  0.56904  0.10687  0.88095  1.0000
  S   S277      1.0  0.57396  0.43524  0.90473  1.0000
  C   C1208     1.0  0.94496  0.02275  0.85478  1.0000
  C   C1209     1.0  0.73560  0.00432  0.88525  1.0000
  H   H2131     1.0  0.90558  0.98186  0.94593  1.0000
  H   H2132     1.0  0.88163  0.01552  0.98671  1.0000
  H   H2133     1.0  0.95600  0.11429  0.93477  1.0000
  H   H2134     1.0  0.57798  0.46546  0.86355  1.0000
  H   H2135     1.0  0.74582  0.02417  0.87924  1.0000
  C   C1210     1.0  0.71966  0.45946  0.90400  1.0000
  H   H2136     1.0  0.94077  0.43494  0.81686  1.0000
  C   C1211     1.0  0.87050  0.40104  0.84791  1.0000
  C   C1212     1.0  0.89045  0.40488  0.86358  1.0000
  C   C1213     1.0  0.90674  0.39438  0.85855  1.0000
  C   C1214     1.0  0.90365  0.38004  0.83772  1.0000
  C   C1215     1.0  0.88398  0.37657  0.82190  1.0000
  C   C1216     1.0  0.86761  0.38693  0.82698  1.0000
  H   H2137     1.0  0.89305  0.41557  0.87978  1.0000
  H   H2138     1.0  0.92168  0.39714  0.87109  1.0000
  H   H2139     1.0  0.88107  0.36550  0.80590  1.0000
  H   H2140     1.0  0.85232  0.38370  0.81466  1.0000
  C   C1217     1.0  0.89672  0.04224  0.86452  1.0000
  C   C1218     1.0  0.88462  0.02769  0.84430  1.0000
  C   C1219     1.0  0.89466  0.03751  0.82186  1.0000
  C   C1220     1.0  0.91682  0.06192  0.81955  1.0000
  C   C1221     1.0  0.92854  0.07680  0.83972  1.0000
  C   C1222     1.0  0.91849  0.06697  0.86220  1.0000
  H   H2141     1.0  0.86772  0.00873  0.84589  1.0000
  H   H2142     1.0  0.88541  0.02603  0.80626  1.0000
  H   H2143     1.0  0.94523  0.09589  0.83795  1.0000
  H   H2144     1.0  0.92766  0.07849  0.87778  1.0000
  H   H2145     1.0  0.52835  0.37840  0.95502  1.0000
  H   H2146     1.0  0.52012  0.45251  0.83429  1.0000
  H   H2147     1.0  0.57316  0.35159  0.81854  1.0000
  C   C1223     1.0  0.64123  0.14698  0.82071  1.0000
  H   H2148     1.0  0.53143  0.40553  0.93844  1.0000
  C   C1224     1.0  0.96762  0.20842  0.79772  1.0000
  Fe  Fe138     1.0  0.97006  0.10714  0.78833  1.0000
  H   H2149     1.0  0.87002  0.05333  0.99796  1.0000
  H   H2150     1.0  0.48201  0.44085  0.77540  1.0000
  H   H2151     1.0  0.66014  0.14086  0.85097  1.0000
  H   H2152     1.0  0.67106  0.02685  0.79577  1.0000
  C   C1225     1.0  0.58384  0.13301  0.77869  1.0000
  H   H2153     1.0  0.59435  0.20024  0.84083  1.0000
  H   H2154     1.0  0.68663  0.46537  0.90787  1.0000
  H   H2155     1.0  0.96642  0.44830  0.79487  1.0000
  C   C1226     1.0  0.66967  0.00436  0.82673  1.0000
  H   H2156     1.0  0.82254  0.05806  0.93430  1.0000
  C   C1227     1.0  0.78082  0.44928  0.97368  1.0000
  H   H2157     1.0  0.91530  0.03607  0.98432  1.0000
  C   C1228     1.0  0.90188  0.98098  0.85007  1.0000
  H   H2158     1.0  0.73040  0.00200  0.95807  1.0000
  H   H2159     1.0  0.61074  0.46017  0.80409  1.0000
  H   H2160     1.0  0.60991  0.18368  0.78231  1.0000
  H   H2161     1.0  0.71253  0.03637  0.98592  1.0000
  H   H2162     1.0  0.53829  0.44485  0.96038  1.0000
  C   C1229     1.0  0.61456  0.13361  0.80791  1.0000
  H   H2163     1.0  0.56973  0.12706  0.79351  1.0000
  N   N65       1.0  0.61131  0.14855  0.78798  1.0000
  H   H2164     1.0  0.58844  0.37229  0.79346  1.0000
  H   H2165     1.0  0.49047  0.37905  0.87324  1.0000
  H   H2166     1.0  0.95581  0.31090  0.86383  1.0000
  C   C1230     1.0  0.69941  0.04891  0.94454  1.0000
  H   H2167     1.0  0.53390  0.01980  0.91288  1.0000
  N   N66       1.0  0.63875  0.43904  0.83206  1.0000
  H   H2168     1.0  0.55980  0.98481  0.86352  1.0000
  H   H2169     1.0  0.85373  0.06741  0.96651  1.0000
  H   H2170     1.0  0.60799  0.16806  0.83466  1.0000
  C   C1231     1.0  0.73712  0.98304  0.98702  1.0000
  S   S278      1.0  0.87160  0.46418  0.90740  1.0000
  H   H2171     1.0  0.86612  0.45443  0.82064  1.0000
  H   H2172     1.0  0.57889  0.14503  0.76709  1.0000
  H   H2173     1.0  0.68635  0.46454  0.85394  1.0000
  C   C1232     1.0  0.76321  0.42241  0.96329  1.0000
  H   H2174     1.0  0.77305  0.41075  0.96465  1.0000
  H   H2175     1.0  0.54075  0.99439  0.84602  1.0000
  C   C1233     1.0  0.61579  0.17451  0.79634  1.0000
  H   H2176     1.0  0.85679  0.45971  0.77614  1.0000
  H   H2177     1.0  0.50500  0.39839  0.97403  1.0000
  H   H2178     1.0  0.53597  0.08665  0.77256  1.0000
  C   C1234     1.0  0.90049  0.42345  0.76897  1.0000
  H   H2179     1.0  0.89402  0.08389  0.98700  1.0000
  H   H2180     1.0  0.62598  0.21523  0.82726  1.0000
  C   C1235     1.0  0.95952  0.09832  0.93996  1.0000
  C   C1236     1.0  0.50187  0.05452  0.90095  1.0000
  C   C1237     1.0  0.66576  0.02514  0.81477  1.0000
  H   H2181     1.0  0.89721  0.40994  0.78371  1.0000
  C   C1238     1.0  0.49481  0.09930  0.88171  1.0000
  C   C1239     1.0  0.47447  0.07384  0.89368  1.0000
  H   H2182     1.0  0.56041  0.44496  0.98144  1.0000
  C   C1240     1.0  0.50721  0.03159  0.89911  1.0000
  C   C1241     1.0  0.52950  0.03568  0.91542  1.0000
  C   C1242     1.0  0.70904  0.99282  0.89097  1.0000
  S   S279      1.0  0.62752  0.02441  0.97348  1.0000
  H   H2183     1.0  0.50528  0.13966  0.87971  1.0000
  H   H2184     1.0  0.59743  0.20781  0.80980  1.0000
  H   H2185     1.0  0.49741  0.06127  0.85576  1.0000
  H   H2186     1.0  0.51903  0.07126  0.89284  1.0000
  H   H2187     1.0  0.50247  0.05997  0.91987  1.0000
  H   H2188     1.0  0.92598  0.46272  0.79786  1.0000
  H   H2189     1.0  0.67885  0.01581  0.98128  1.0000
  C   C1243     1.0  0.82894  0.45986  0.80008  1.0000
  H   H2190     1.0  0.65662  0.14820  0.80879  1.0000
  C   C1244     1.0  0.94120  0.08225  0.95987  1.0000
  H   H2191     1.0  0.51477  0.10502  0.88756  1.0000
  H   H2192     1.0  0.81594  0.45841  0.78530  1.0000
  H   H2193     1.0  0.48315  0.39585  0.89569  1.0000
  H   H2194     1.0  0.48052  0.42809  0.81633  1.0000
  H   H2195     1.0  0.89258  0.47295  0.85449  1.0000
  C   C1245     1.0  0.90603  0.99375  0.96124  1.0000
  H   H2196     1.0  0.53874  0.21147  0.75348  1.0000
  H   H2197     1.0  0.52417  0.03576  0.93422  1.0000
  C   C1246     1.0  0.89690  0.02915  0.97440  1.0000
  H   H2198     1.0  0.54730  0.05428  0.91141  1.0000
  H   H2199     1.0  0.94203  0.27639  0.86189  1.0000
  H   H2200     1.0  0.64526  0.02054  0.81644  1.0000
  S   S280      1.0  0.48516  0.33641  0.77065  1.0000
  C   C1247     1.0  0.60507  0.20109  0.82447  1.0000
  H   H2201     1.0  0.61897  0.41921  0.79996  1.0000
  C   C1248     1.0  0.93122  0.99284  0.85260  1.0000
  Fe  Fe139     1.0  0.95219  0.30434  0.79164  1.0000
  C   C1249     1.0  0.96425  0.24786  0.79474  1.0000
  H   H2202     1.0  0.66304  0.43100  0.80919  1.0000
  N   N67       1.0  0.70117  0.99593  0.98422  1.0000
  C   C1250     1.0  0.66101  0.43402  0.82835  1.0000
  C   C1251     1.0  0.61495  0.41857  0.81927  1.0000
  H   H2203     1.0  0.68518  0.00835  0.93956  1.0000
  C   C1252     1.0  0.63298  0.44017  0.85795  1.0000
  C   C1253     1.0  0.63793  0.42266  0.87511  1.0000
  C   C1254     1.0  0.61705  0.00132  0.99661  1.0000
  H   H2204     1.0  0.93487  0.98459  0.86876  1.0000
  C   C1255     1.0  0.60362  0.39036  0.82783  1.0000
  C   C1256     1.0  0.58140  0.37164  0.81176  1.0000
  H   H2205     1.0  0.94527  0.09541  0.97513  1.0000
  H   H2206     1.0  0.70911  0.43959  0.90990  1.0000
  H   H2207     1.0  0.58007  0.16094  0.81702  1.0000
  H   H2208     1.0  0.65723  0.41571  0.83679  1.0000
  H   H2209     1.0  0.61386  0.46808  0.83505  1.0000
  H   H2210     1.0  0.96717  0.42401  0.84262  1.0000
  H   H2211     1.0  0.93603  0.03013  0.84190  1.0000
  C   C1257     1.0  0.48543  0.41042  0.85986  1.0000
  H   H2212     1.0  0.61251  0.43567  0.86018  1.0000
  H   H2213     1.0  0.65907  0.43086  0.87797  1.0000
  H   H2214     1.0  0.63025  0.40278  0.86833  1.0000
  H   H2215     1.0  0.63155  0.41008  0.91167  1.0000
  C   C1258     1.0  0.53940  0.43758  0.97826  1.0000
  H   H2216     1.0  0.49379  0.09733  0.86221  1.0000
  H   H2217     1.0  0.89261  0.98055  0.97495  1.0000
  H   H2218     1.0  0.94610  0.06715  0.96451  1.0000
  H   H2219     1.0  0.59534  0.38829  0.84581  1.0000
  C   C1259     1.0  0.70722  0.44641  0.84051  1.0000
  H   H2220     1.0  0.61841  0.38423  0.82797  1.0000
  H   H2221     1.0  0.96311  0.06689  0.88536  1.0000
  H   H2222     1.0  0.60414  0.40969  0.89764  1.0000
  Fe  Fe140     1.0  0.94850  0.33722  0.75253  1.0000
  H   H2223     1.0  0.55829  0.40889  0.95630  1.0000
  C   C1260     1.0  0.64639  0.46482  0.82065  1.0000
  H   H2224     1.0  0.89683  0.44297  0.81301  1.0000
  C   C1261     1.0  0.95751  0.43397  0.80934  1.0000
  S   S281      1.0  0.83245  0.46826  0.86752  1.0000
  H   H2225     1.0  0.73406  0.99556  0.82948  1.0000
  H   H2226     1.0  0.70060  0.43171  0.85480  1.0000
  H   H2227     1.0  0.83140  0.03633  0.92056  1.0000
  H   H2228     1.0  0.70129  0.05279  0.92523  1.0000
  H   H2229     1.0  0.59852  0.42240  0.82106  1.0000
  H   H2230     1.0  0.93945  0.02686  0.87235  1.0000
  H   H2231     1.0  0.87802  0.00150  0.94524  1.0000
  C   C1262     1.0  0.70100  0.02458  0.94957  1.0000
  H   H2232     1.0  0.64491  0.46017  0.86504  1.0000
  H   H2233     1.0  0.48885  0.42148  0.98677  1.0000
  H   H2234     1.0  0.69900  0.98484  0.79992  1.0000
  Fe  Fe141     1.0  0.51170  0.13552  0.76152  1.0000
  H   H2235     1.0  0.72642  0.46288  0.84577  1.0000
  H   H2236     1.0  0.67833  0.04409  0.82350  1.0000
  H   H2237     1.0  0.96787  0.43950  0.88059  1.0000
  H   H2238     1.0  0.63195  0.44009  0.90660  1.0000
  S   S282      1.0  0.94486  0.26302  0.79787  1.0000
  H   H2239     1.0  0.47563  0.07811  0.91290  1.0000
  H   H2240     1.0  0.51290  0.03001  0.88074  1.0000
  H   H2241     1.0  0.63683  0.18819  0.79936  1.0000
  H   H2242     1.0  0.69061  0.01056  0.82562  1.0000
  C   C1263     1.0  0.49006  0.12153  0.88799  1.0000
  H   H2243     1.0  0.93801  0.98651  0.83712  1.0000
  H   H2244     1.0  0.47501  0.46851  0.80491  1.0000
  C   C1264     1.0  0.86636  0.03971  0.95570  1.0000
  C   C1265     1.0  0.91257  0.07058  0.95205  1.0000
  H   H2245     1.0  0.50613  0.42496  0.86277  1.0000
  C   C1266     1.0  0.89761  0.01294  0.95325  1.0000
  C   C1267     1.0  0.85613  0.05856  0.95015  1.0000
  H   H2246     1.0  0.63529  0.11142  0.83750  1.0000
  N   N68       1.0  0.47721  0.05035  0.88932  1.0000
  C   C1268     1.0  0.74593  0.47022  0.89738  1.0000
  C   C1269     1.0  0.53680  0.39973  0.95525  1.0000
  C   C1270     1.0  0.82971  0.04438  0.93778  1.0000
  H   H2247     1.0  0.66464  0.00392  0.84552  1.0000
  H   H2248     1.0  0.74904  0.45636  0.98118  1.0000
  C   C1271     1.0  0.68791  0.45599  0.83704  1.0000
  C   C1272     1.0  0.50231  0.44263  0.98840  1.0000
  H   H2249     1.0  0.85114  0.02339  0.96602  1.0000
  H   H2250     1.0  0.86723  0.03132  0.93844  1.0000
  H   H2251     1.0  0.91051  0.06209  0.93409  1.0000
  H   H2252     1.0  0.50223  0.47066  0.86809  1.0000
  Fe  Fe142     1.0  0.60613  0.47657  0.90673  1.0000
  H   H2253     1.0  0.94630  0.01869  0.80688  1.0000
  H   H2254     1.0  0.71536  0.06593  0.95367  1.0000
  H   H2255     1.0  0.91139  0.02543  0.93948  1.0000
  H   H2256     1.0  0.86952  0.07422  0.93813  1.0000
  C   C1273     1.0  0.60112  0.17426  0.81906  1.0000
  S   S283      1.0  0.92973  0.07284  0.79129  1.0000
  H   H2257     1.0  0.62995  0.13444  0.76411  1.0000
  H   H2258     1.0  0.96042  0.29349  0.88776  1.0000
  H   H2259     1.0  0.76942  0.99959  0.88210  1.0000
  H   H2260     1.0  0.56564  0.37653  0.81138  1.0000
  C   C1274     1.0  0.89155  0.44260  0.77573  1.0000
  H   H2261     1.0  0.91384  0.46062  0.84709  1.0000
  C   C1275     1.0  0.95293  0.22114  0.79913  1.0000
  C   C1276     1.0  0.76804  0.46644  0.97191  1.0000
  C   C1277     1.0  0.54749  0.47653  0.99960  1.0000
  H   H2262     1.0  0.74457  0.41233  0.97305  1.0000
  C   C1278     1.0  0.62464  0.47185  0.81829  1.0000
  H   H2263     1.0  0.70962  0.43793  0.82388  1.0000
  H   H2264     1.0  0.81532  0.02838  0.94899  1.0000
  H   H2265     1.0  0.95861  0.18798  0.80157  1.0000
  Fe  Fe143     1.0  0.85260  0.98839  0.89452  1.0000
  C   C1279     1.0  0.62562  0.42059  0.89922  1.0000
  H   H2266     1.0  0.95666  0.08594  0.92428  1.0000
  H   H2267     1.0  0.65084  0.46459  0.98139  1.0000
  C   C1280     1.0  0.49562  0.46746  0.84931  1.0000
  H   H2268     1.0  0.79923  0.45795  0.96371  1.0000
  H   H2269     1.0  0.61167  0.11473  0.80151  1.0000
  H   H2270     1.0  0.68050  0.04638  0.95052  1.0000
  H   H2271     1.0  0.92608  0.00411  0.96848  1.0000
  C   C1281     1.0  0.90525  0.45751  0.79859  1.0000
  H   H2272     1.0  0.96343  0.40662  0.90991  1.0000
  N   N69       1.0  0.89216  0.05113  0.96842  1.0000
  C   C1282     1.0  0.70678  0.47402  0.90279  1.0000
  C   C1283     1.0  0.47871  0.04589  0.86327  1.0000
  H   H2273     1.0  0.62644  0.13082  0.85559  1.0000
  C   C1284     1.0  0.52629  0.40763  0.97635  1.0000
  C   C1285     1.0  0.54116  0.98489  0.86278  1.0000
  C   C1286     1.0  0.84920  0.46965  0.99300  1.0000
  C   C1287     1.0  0.89020  0.06398  0.99084  1.0000
  H   H2274     1.0  0.82200  0.44016  0.80731  1.0000
  H   H2275     1.0  0.88233  0.25885  0.75805  1.0000
  C   C1288     1.0  0.85680  0.47158  0.79115  1.0000
  H   H2276     1.0  0.89403  0.98733  0.86477  1.0000
  H   H2277     1.0  0.61281  0.47467  0.97590  1.0000
  H   H2278     1.0  0.78505  0.44671  0.99227  1.0000
  H   H2279     1.0  0.92145  0.43386  0.76442  1.0000
  H   H2280     1.0  0.73959  0.98300  0.80248  1.0000
  H   H2281     1.0  0.47842  0.05298  0.81509  1.0000
  H   H2282     1.0  0.58064  0.09450  0.77586  1.0000
  H   H2283     1.0  0.76303  0.46641  0.95289  1.0000
  H   H2284     1.0  0.47315  0.43070  0.88251  1.0000
  H   H2285     1.0  0.47881  0.02749  0.86041  1.0000
  H   H2286     1.0  0.89703  0.98678  0.83299  1.0000
  S   S284      1.0  0.62689  0.97987  0.92294  1.0000
  H   H2287     1.0  0.65092  0.16550  0.77582  1.0000
  H   H2288     1.0  0.53021  0.39943  0.99242  1.0000
  H   H2289     1.0  0.89561  0.45549  0.76036  1.0000
  H   H2290     1.0  0.88932  0.41194  0.75336  1.0000
  S   S285      1.0  0.96745  0.33738  0.81759  1.0000
  C   C1289     1.0  0.96712  0.03380  0.80660  1.0000
  C   C1290     1.0  0.47879  0.38839  0.87727  1.0000
  S   S286      1.0  0.48045  0.14424  0.77085  1.0000
  H   H2291     1.0  0.65407  0.46570  0.80250  1.0000
  N   N70       1.0  0.52865  0.44794  0.99686  1.0000
  H   H2292     1.0  0.67777  0.46454  0.96693  1.0000
  C   C1291     1.0  0.63085  0.15297  0.76900  1.0000
  H   H2293     1.0  0.48275  0.40214  0.84184  1.0000
  H   H2294     1.0  0.82774  0.47228  0.81410  1.0000
  C   C1292     1.0  0.87542  0.47329  0.81125  1.0000
  H   H2295     1.0  0.49036  0.19560  0.75456  1.0000
  H   H2296     1.0  0.96776  0.03274  0.76833  1.0000
  C   C1293     1.0  0.54895  0.09350  0.75697  1.0000
  C   C1294     1.0  0.57732  0.10794  0.76485  1.0000
  C   C1295     1.0  0.91259  0.47847  0.84899  1.0000
  H   H2297     1.0  0.87573  0.48968  0.19763  1.0000
  Fe  Fe144     1.0  0.83246  0.84672  0.20763  1.0000
  S   S287      1.0  0.84053  0.81458  0.19980  1.0000
  S   S288      1.0  0.81467  0.86012  0.17972  1.0000
  Fe  Fe145     1.0  0.81792  0.79622  0.23314  1.0000
  H   H2298     1.0  0.86253  0.53498  0.23486  1.0000
  Fe  Fe146     1.0  0.87635  0.83785  0.22258  1.0000
  S   S289      1.0  0.91600  0.84452  0.20828  1.0000
  S   S290      1.0  0.61435  0.53140  0.13476  1.0000
  S   S291      1.0  0.86861  0.87062  0.22914  1.0000
  Fe  Fe147     1.0  0.86702  0.52562  0.08710  1.0000
  S   S292      1.0  0.86708  0.55293  0.11491  1.0000
  S   S293      1.0  0.87070  0.53435  0.04778  1.0000
  H   H2299     1.0  0.71295  0.63024  0.22539  1.0000
  S   S294      1.0  0.85624  0.50866  0.15324  1.0000
  H   H2300     1.0  0.96760  0.56569  0.13715  1.0000
  Fe  Fe148     1.0  0.83139  0.51750  0.12891  1.0000
  S   S295      1.0  0.79510  0.51914  0.14110  1.0000
  Fe  Fe149     1.0  0.89216  0.54187  0.13699  1.0000
  S   S296      1.0  0.92517  0.56685  0.16390  1.0000
  C   C1296     1.0  0.71723  0.65265  0.18068  1.0000
  S   S297      1.0  0.89459  0.51750  0.10776  1.0000
  Fe  Fe150     1.0  0.62804  0.66740  0.22930  1.0000
  H   H2301     1.0  0.94438  0.90199  0.20987  1.0000
  S   S298      1.0  0.66283  0.70571  0.21678  1.0000
  Fe  Fe151     1.0  0.56850  0.62586  0.22140  1.0000
  H   H2302     1.0  0.85580  0.94531  0.01678  1.0000
  S   S299      1.0  0.53393  0.60809  0.19459  1.0000
  Fe  Fe152     1.0  0.60779  0.60997  0.23747  1.0000
  S   S300      1.0  0.61778  0.57813  0.23577  1.0000
  H   H2303     1.0  0.72952  0.64370  0.18401  1.0000
  S   S301      1.0  0.60648  0.63217  0.20611  1.0000
  C   C1297     1.0  0.70558  0.70639  0.23867  1.0000
  C   C1298     1.0  0.47450  0.89096  0.20992  1.0000
  C   C1299     1.0  0.93282  0.97202  0.11074  1.0000
  Fe  Fe153     1.0  0.57802  0.94369  0.14733  1.0000
  C   C1300     1.0  0.50143  0.90324  0.20466  1.0000
  S   S302      1.0  0.54528  0.92498  0.17586  1.0000
  Fe  Fe154     1.0  0.59987  0.95451  0.09618  1.0000
  S   S303      1.0  0.59180  0.94242  0.05750  1.0000
  C   C1301     1.0  0.53695  0.68181  0.22064  1.0000
  C   C1302     1.0  0.68786  0.60094  0.15321  1.0000
  S   S304      1.0  0.59733  0.92657  0.12457  1.0000
  H   H2304     1.0  0.69075  0.57219  0.13191  1.0000
  H   H2305     1.0  0.50095  0.58101  0.15473  1.0000
  N   N71       1.0  0.80960  0.91785  0.23567  1.0000
  H   H2306     1.0  0.70569  0.50307  0.15120  1.0000
  H   H2307     1.0  0.70666  0.57813  0.16028  1.0000
  H   H2308     1.0  0.51518  0.90724  0.21884  1.0000
  H   H2309     1.0  0.53742  0.52184  0.13969  1.0000
  C   C1303     1.0  0.62292  0.51160  0.02485  1.0000
  C   C1304     1.0  0.61602  0.56455  0.20781  1.0000
  C   C1305     1.0  0.62290  0.54537  0.20527  1.0000
  C   C1306     1.0  0.62208  0.53468  0.18292  1.0000
  C   C1307     1.0  0.61479  0.54352  0.16305  1.0000
  C   C1308     1.0  0.60814  0.56282  0.16557  1.0000
  C   C1309     1.0  0.60841  0.57304  0.18792  1.0000
  H   H2310     1.0  0.62883  0.53873  0.22060  1.0000
  H   H2311     1.0  0.62748  0.51994  0.18104  1.0000
  H   H2312     1.0  0.60244  0.56966  0.15022  1.0000
  H   H2313     1.0  0.60263  0.58739  0.18968  1.0000
  H   H2314     1.0  0.49318  0.55718  0.22937  1.0000
  S   S305      1.0  0.57808  0.96920  0.11785  1.0000
  C   C1310     1.0  0.60161  0.96551  0.03440  1.0000
  C   C1311     1.0  0.84907  0.95896  0.01412  1.0000
  H   H2315     1.0  0.78450  0.93010  0.00625  1.0000
  H   H2316     1.0  0.89533  0.96657  0.09927  1.0000
  C   C1312     1.0  0.76331  0.92186  0.00873  1.0000
  H   H2317     1.0  0.96983  0.52753  0.19450  1.0000
  H   H2318     1.0  0.56121  0.71604  0.18811  1.0000
  S   S306      1.0  0.88391  0.97751  0.15352  1.0000
  C   C1313     1.0  0.95936  0.57935  0.16936  1.0000
  H   H2319     1.0  0.65116  0.62223  0.16992  1.0000
  C   C1314     1.0  0.48289  0.59522  0.20691  1.0000
  C   C1315     1.0  0.49945  0.59397  0.18999  1.0000
  H   H2320     1.0  0.63091  0.53159  0.03012  1.0000
  H   H2321     1.0  0.57398  0.48320  0.18322  1.0000
  H   H2322     1.0  0.95842  0.59591  0.20298  1.0000
  H   H2323     1.0  0.49068  0.60404  0.22391  1.0000
  C   C1316     1.0  0.53132  0.51629  0.21432  1.0000
  H   H2324     1.0  0.51354  0.68113  0.14094  1.0000
  H   H2325     1.0  0.50155  0.63515  0.14159  1.0000
  C   C1317     1.0  0.86273  0.50915  0.02710  1.0000
  H   H2326     1.0  0.50718  0.65782  0.24627  1.0000
  C   C1318     1.0  0.96453  0.52274  0.21338  1.0000
  C   C1319     1.0  0.54754  0.67047  0.16380  1.0000
  H   H2327     1.0  0.79217  0.96002  0.04303  1.0000
  H   H2328     1.0  0.51424  0.71051  0.19670  1.0000
  C   C1320     1.0  0.75066  0.74198  0.23447  1.0000
  C   C1321     1.0  0.74146  0.75524  0.22069  1.0000
  C   C1322     1.0  0.71463  0.74395  0.21562  1.0000
  C   C1323     1.0  0.69645  0.71942  0.22447  1.0000
  H   H2329     1.0  0.75700  0.90733  0.12256  1.0000
  H   H2330     1.0  0.82730  0.96437  0.17391  1.0000
  H   H2331     1.0  0.75507  0.77403  0.21356  1.0000
  H   H2332     1.0  0.70795  0.75431  0.20463  1.0000
  H   H2333     1.0  0.76885  0.84059  0.21288  1.0000
  C   C1324     1.0  0.73382  0.94931  0.06542  1.0000
  C   C1325     1.0  0.94620  0.86943  0.19588  1.0000
  C   C1326     1.0  0.93373  0.49498  0.14515  1.0000
  C   C1327     1.0  0.92358  0.50434  0.16539  1.0000
  C   C1328     1.0  0.51077  0.91005  0.18131  1.0000
  H   H2334     1.0  0.68175  0.60143  0.22786  1.0000
  S   S307      1.0  0.80808  0.82715  0.23909  1.0000
  H   H2335     1.0  0.76208  0.97450  0.15744  1.0000
  H   H2336     1.0  0.72166  0.92823  0.06912  1.0000
  H   H2337     1.0  0.68664  0.93108  0.09144  1.0000
  C   C1329     1.0  0.53984  0.49955  0.11123  1.0000
  C   C1330     1.0  0.83353  0.89274  0.17211  1.0000
  C   C1331     1.0  0.82449  0.90371  0.15532  1.0000
  C   C1332     1.0  0.83962  0.93001  0.14949  1.0000
  C   C1333     1.0  0.86357  0.94515  0.16068  1.0000
  C   C1334     1.0  0.87227  0.93423  0.17763  1.0000
  C   C1335     1.0  0.85736  0.90810  0.18320  1.0000
  H   H2338     1.0  0.80595  0.89181  0.14673  1.0000
  H   H2339     1.0  0.83299  0.93848  0.13625  1.0000
  H   H2340     1.0  0.89049  0.94605  0.18669  1.0000
  H   H2341     1.0  0.86442  0.89995  0.19607  1.0000
  H   H2342     1.0  0.76444  0.91297  0.04508  1.0000
  H   H2343     1.0  0.51023  0.50564  0.21808  1.0000
  H   H2344     1.0  0.53824  0.54599  0.24001  1.0000
  H   H2345     1.0  0.53257  0.75795  0.19365  1.0000
  H   H2346     1.0  0.76734  0.96353  0.02894  1.0000
  C   C1336     1.0  0.76695  0.94128  0.08468  1.0000
  H   H2347     1.0  0.76992  0.52110  0.05661  1.0000
  H   H2348     1.0  0.88083  0.54556  0.20782  1.0000
  H   H2349     1.0  0.70586  0.61708  0.14562  1.0000
  C   C1337     1.0  0.49244  0.90462  0.16331  1.0000
  H   H2350     1.0  0.68635  0.94677  0.06411  1.0000
  C   C1338     1.0  0.76124  0.94413  0.11083  1.0000
  C   C1339     1.0  0.76848  0.92821  0.12710  1.0000
  H   H2351     1.0  0.52822  0.52360  0.17761  1.0000
  H   H2352     1.0  0.55268  0.67792  0.14538  1.0000
  S   S308      1.0  0.67117  0.95349  0.14645  1.0000
  N   N72       1.0  0.68883  0.63325  0.18471  1.0000
  H   H2353     1.0  0.72056  0.65848  0.16174  1.0000
  H   H2354     1.0  0.75464  0.92032  0.08071  1.0000
  H   H2355     1.0  0.78750  0.94563  0.08361  1.0000
  C   C1340     1.0  0.52933  0.50104  0.13544  1.0000
  C   C1341     1.0  0.52793  0.66453  0.24253  1.0000
  H   H2356     1.0  0.90073  0.52187  0.19224  1.0000
  H   H2357     1.0  0.93813  0.50805  0.12974  1.0000
  H   H2358     1.0  0.55875  0.76076  0.17549  1.0000
  C   C1342     1.0  0.76074  0.50129  0.13571  1.0000
  Fe  Fe155     1.0  0.60920  0.49148  0.13256  1.0000
  H   H2359     1.0  0.94614  0.92410  0.10004  1.0000
  H   H2360     1.0  0.58649  0.93642  0.00707  1.0000
  H   H2361     1.0  0.67099  0.59821  0.14245  1.0000
  H   H2362     1.0  0.94040  0.53985  0.21043  1.0000
  H   H2363     1.0  0.74022  0.93682  0.11332  1.0000
  H   H2364     1.0  0.78948  0.93468  0.12570  1.0000
  H   H2365     1.0  0.76429  0.93075  0.14573  1.0000
  C   C1343     1.0  0.77670  0.86880  0.24089  1.0000
  H   H2366     1.0  0.56136  0.50903  0.11172  1.0000
  C   C1344     1.0  0.85847  0.93683  0.24760  1.0000
  H   H2367     1.0  0.59542  0.68002  0.14582  1.0000
  C   C1345     1.0  0.72947  0.67771  0.19592  1.0000
  C   C1346     1.0  0.95564  0.89594  0.19942  1.0000
  H   H2368     1.0  0.93825  0.52461  0.16947  1.0000
  C   C1347     1.0  0.89348  0.50609  0.20551  1.0000
  H   H2369     1.0  0.95184  0.49522  0.15048  1.0000
  H   H2370     1.0  0.67721  0.63789  0.14949  1.0000
  N   N73       1.0  0.93840  0.94444  0.14350  1.0000
  C   C1348     1.0  0.92123  0.94632  0.12478  1.0000
  C   C1349     1.0  0.92326  0.91968  0.15754  1.0000
  C   C1350     1.0  0.94681  0.96713  0.16012  1.0000
  H   H2371     1.0  0.48572  0.63040  0.16979  1.0000
  H   H2372     1.0  0.68448  0.65274  0.21545  1.0000
  C   C1351     1.0  0.96169  0.86226  0.18255  1.0000
  C   C1352     1.0  0.96224  0.96748  0.18247  1.0000
  C   C1353     1.0  0.90107  0.89590  0.14454  1.0000
  C   C1354     1.0  0.89104  0.87136  0.15936  1.0000
  C   C1355     1.0  0.68933  0.57616  0.15087  1.0000
  H   H2373     1.0  0.69748  0.60232  0.19015  1.0000
  H   H2374     1.0  0.77257  0.96448  0.11679  1.0000
  H   H2375     1.0  0.90306  0.94356  0.13312  1.0000
  H   H2376     1.0  0.91480  0.93052  0.11161  1.0000
  H   H2377     1.0  0.93666  0.91364  0.16516  1.0000
  H   H2378     1.0  0.91361  0.92281  0.17303  1.0000
  H   H2379     1.0  0.92956  0.96836  0.16599  1.0000
  H   H2380     1.0  0.55000  0.97585  0.24956  1.0000
  H   H2381     1.0  0.49900  0.90956  0.14526  1.0000
  H   H2382     1.0  0.76510  0.71467  0.19871  1.0000
  C   C1356     1.0  0.71749  0.49615  0.14295  1.0000
  C   C1357     1.0  0.54167  0.54458  0.22092  1.0000
  H   H2383     1.0  0.66413  0.97729  0.23037  1.0000
  H   H2384     1.0  0.73593  0.91445  0.03651  1.0000
  C   C1358     1.0  0.75732  0.92396  0.03463  1.0000
  H   H2385     1.0  0.95199  0.94917  0.19257  1.0000
  H   H2386     1.0  0.88443  0.89912  0.14133  1.0000
  H   H2387     1.0  0.90733  0.89218  0.12728  1.0000
  H   H2388     1.0  0.90640  0.86608  0.16159  1.0000
  H   H2389     1.0  0.88470  0.87408  0.17704  1.0000
  H   H2390     1.0  0.87414  0.85506  0.15041  1.0000
  H   H2391     1.0  0.66346  0.97020  0.04992  1.0000
  N   N74       1.0  0.91374  0.49833  0.21019  1.0000
  C   C1359     1.0  0.48854  0.58218  0.16806  1.0000
  C   C1360     1.0  0.96255  0.94608  0.13312  1.0000
  H   H2392     1.0  0.94933  0.90569  0.12400  1.0000
  C   C1361     1.0  0.74483  0.51010  0.14574  1.0000
  H   H2393     1.0  0.57254  0.50382  0.20572  1.0000
  C   C1362     1.0  0.53725  0.48771  0.15469  1.0000
  H   H2394     1.0  0.85143  0.51439  0.20910  1.0000
  H   H2395     1.0  0.47841  0.96620  0.19441  1.0000
  H   H2396     1.0  0.80085  0.97064  0.17739  1.0000
  C   C1363     1.0  0.71840  0.50663  0.04674  1.0000
  C   C1364     1.0  0.67899  0.50563  0.06291  1.0000
  H   H2397     1.0  0.91050  0.95514  0.07840  1.0000
  H   H2398     1.0  0.51649  0.72092  0.16659  1.0000
  H   H2399     1.0  0.93734  0.52462  0.23792  1.0000
  C   C1365     1.0  0.69018  0.53498  0.05863  1.0000
  C   C1366     1.0  0.73195  0.51082  0.07117  1.0000
  C   C1367     1.0  0.76126  0.52883  0.06929  1.0000
  H   H2400     1.0  0.51810  0.64746  0.19876  1.0000
  C   C1368     1.0  0.67171  0.63813  0.16821  1.0000
  C   C1369     1.0  0.67772  0.54587  0.07528  1.0000
  C   C1370     1.0  0.75657  0.69731  0.18710  1.0000
  C   C1371     1.0  0.57299  0.67760  0.17722  1.0000
  H   H2401     1.0  0.72873  0.49208  0.07814  1.0000
  H   H2402     1.0  0.72596  0.52569  0.03786  1.0000
  H   H2403     1.0  0.68198  0.50282  0.08189  1.0000
  N   N75       1.0  0.68913  0.49227  0.04715  1.0000
  C   C1372     1.0  0.67920  0.49145  0.02238  1.0000
  H   H2404     1.0  0.96374  0.50416  0.21698  1.0000
  H   H2405     1.0  0.76075  0.48654  0.02729  1.0000
  H   H2406     1.0  0.60798  0.67525  0.17321  1.0000
  H   H2407     1.0  0.61088  0.49677  0.06022  1.0000
  C   C1373     1.0  0.68032  0.63323  0.20986  1.0000
  H   H2408     1.0  0.68636  0.53871  0.04025  1.0000
  H   H2409     1.0  0.71141  0.54596  0.06194  1.0000
  H   H2410     1.0  0.72462  0.51937  0.08435  1.0000
  C   C1374     1.0  0.56389  0.48359  0.19958  1.0000
  H   H2411     1.0  0.69194  0.68763  0.24575  1.0000
  H   H2412     1.0  0.77041  0.53062  0.08689  1.0000
  H   H2413     1.0  0.90577  0.50405  0.15893  1.0000
  H   H2414     1.0  0.79156  0.86539  0.24935  1.0000
  H   H2415     1.0  0.83649  0.95672  0.22304  1.0000
  H   H2416     1.0  0.71411  0.94712  0.16095  1.0000
  H   H2417     1.0  0.73116  0.96549  0.10004  1.0000
  H   H2418     1.0  0.68807  0.96188  0.09214  1.0000
  C   C1375     1.0  0.75824  0.84440  0.22702  1.0000
  H   H2419     1.0  0.68131  0.54299  0.09402  1.0000
  H   H2420     1.0  0.68615  0.56691  0.07209  1.0000
  H   H2421     1.0  0.65644  0.53626  0.07217  1.0000
  H   H2422     1.0  0.87215  0.49962  0.23889  1.0000
  C   C1376     1.0  0.91722  0.48695  0.18756  1.0000
  C   C1377     1.0  0.77082  0.95259  0.04300  1.0000
  H   H2423     1.0  0.57956  0.64860  0.16005  1.0000
  C   C1378     1.0  0.67211  0.66410  0.17126  1.0000
  C   C1379     1.0  0.65254  0.66562  0.15472  1.0000
  H   H2424     1.0  0.67162  0.55941  0.15822  1.0000
  H   H2425     1.0  0.90167  0.53056  0.23734  1.0000
  H   H2426     1.0  0.66709  0.66657  0.18953  1.0000
  H   H2427     1.0  0.69146  0.68048  0.16660  1.0000
  H   H2428     1.0  0.63258  0.64956  0.15825  1.0000
  H   H2429     1.0  0.65294  0.68423  0.15767  1.0000
  H   H2430     1.0  0.65751  0.66470  0.13596  1.0000
  H   H2431     1.0  0.66427  0.59155  0.18457  1.0000
  H   H2432     1.0  0.83004  0.93191  0.20275  1.0000
  H   H2433     1.0  0.50059  0.66393  0.20208  1.0000
  C   C1380     1.0  0.52044  0.66713  0.19862  1.0000
  H   H2434     1.0  0.80527  0.51482  0.01212  1.0000
  H   H2435     1.0  0.50796  0.49188  0.13379  1.0000
  C   C1381     1.0  0.58993  0.66985  0.16308  1.0000
  H   H2436     1.0  0.66467  0.95761  0.20637  1.0000
  C   C1382     1.0  0.48496  0.95853  0.23013  1.0000
  H   H2437     1.0  0.53045  0.64743  0.23993  1.0000
  S   S309      1.0  0.61748  0.97391  0.16146  1.0000
  H   H2438     1.0  0.71765  0.68730  0.19588  1.0000
  C   C1383     1.0  0.66154  0.97396  0.21099  1.0000
  H   H2439     1.0  0.76956  0.68890  0.18748  1.0000
  C   C1384     1.0  0.53666  0.51368  0.18794  1.0000
  H   H2440     1.0  0.50236  0.95723  0.22514  1.0000
  C   C1385     1.0  0.68427  0.60643  0.17936  1.0000
  H   H2441     1.0  0.79756  0.88808  0.20896  1.0000
  S   S310      1.0  0.59013  0.66372  0.24182  1.0000
  C   C1386     1.0  0.95839  0.92480  0.11514  1.0000
  N   N76       1.0  0.76231  0.95735  0.06676  1.0000
  H   H2442     1.0  0.74959  0.82748  0.23907  1.0000
  C   C1387     1.0  0.69452  0.94998  0.08227  1.0000
  C   C1388     1.0  0.82067  0.93798  0.21635  1.0000
  H   H2443     1.0  0.54100  0.50878  0.22610  1.0000
  H   H2444     1.0  0.78800  0.92714  0.19179  1.0000
  H   H2445     1.0  0.53183  0.55301  0.21049  1.0000
  H   H2446     1.0  0.76570  0.54842  0.06355  1.0000
  C   C1389     1.0  0.85209  0.48336  0.03421  1.0000
  H   H2447     1.0  0.72838  0.95176  0.04714  1.0000
  C   C1390     1.0  0.54500  0.74935  0.18980  1.0000
  H   H2448     1.0  0.56841  0.66684  0.19412  1.0000
  H   H2449     1.0  0.56287  0.55608  0.21775  1.0000
  Fe  Fe156     1.0  0.85797  0.48521  0.12294  1.0000
  H   H2450     1.0  0.55796  0.52553  0.18495  1.0000
  C   C1391     1.0  0.81523  0.96735  0.18708  1.0000
  H   H2451     1.0  0.55886  0.49864  0.15527  1.0000
  C   C1392     1.0  0.61169  0.49191  0.04193  1.0000
  C   C1393     1.0  0.86891  0.52845  0.21916  1.0000
  H   H2452     1.0  0.80916  0.48816  0.00522  1.0000
  H   H2453     1.0  0.95494  0.84193  0.17973  1.0000
  H   H2454     1.0  0.65763  0.49654  0.06070  1.0000
  H   H2455     1.0  0.47221  0.96138  0.07640  1.0000
  C   C1394     1.0  0.78686  0.47965  0.04808  1.0000
  H   H2456     1.0  0.75372  0.52774  0.15607  1.0000
  H   H2457     1.0  0.83260  0.89866  0.23517  1.0000
  H   H2458     1.0  0.73150  0.67325  0.21457  1.0000
  C   C1395     1.0  0.72418  0.96380  0.08169  1.0000
  C   C1396     1.0  0.69202  0.62292  0.22862  1.0000
  C   C1397     1.0  0.83053  0.91322  0.24596  1.0000
  H   H2459     1.0  0.75557  0.70357  0.16882  1.0000
  H   H2460     1.0  0.65882  0.62114  0.21120  1.0000
  Fe  Fe157     1.0  0.63666  0.95927  0.13631  1.0000
  H   H2461     1.0  0.54040  0.48561  0.01243  1.0000
  C   C1398     1.0  0.49077  0.64159  0.15316  1.0000
  H   H2462     1.0  0.49149  0.97839  0.23667  1.0000
  C   C1399     1.0  0.91410  0.97055  0.09140  1.0000
  H   H2463     1.0  0.53435  0.50965  0.09791  1.0000
  C   C1400     1.0  0.73246  0.71745  0.24337  1.0000
  C   C1401     1.0  0.54463  0.70862  0.17561  1.0000
  H   H2464     1.0  0.69243  0.97257  0.01595  1.0000
  H   H2465     1.0  0.55784  0.68872  0.21825  1.0000
  C   C1402     1.0  0.78920  0.89287  0.22447  1.0000
  H   H2466     1.0  0.49334  0.67668  0.16576  1.0000
  C   C1403     1.0  0.86676  0.51509  0.00291  1.0000
  H   H2467     1.0  0.58482  0.69862  0.18076  1.0000
  H   H2468     1.0  0.78935  0.94783  0.21573  1.0000
  H   H2469     1.0  0.77281  0.89487  0.21742  1.0000
  H   H2470     1.0  0.53720  0.64902  0.16237  1.0000
  C   C1404     1.0  0.88476  0.51596  0.22707  1.0000
  H   H2471     1.0  0.53497  0.69898  0.22448  1.0000
  H   H2472     1.0  0.65799  0.48443  0.02251  1.0000
  H   H2473     1.0  0.72552  0.49598  0.03584  1.0000
  C   C1405     1.0  0.52801  0.72116  0.18220  1.0000
  H   H2474     1.0  0.79966  0.49998  0.05392  1.0000
  H   H2475     1.0  0.68807  0.51131  0.01492  1.0000
  H   H2476     1.0  0.55366  0.71670  0.15812  1.0000
  C   C1406     1.0  0.70554  0.97391  0.14310  1.0000
  C   C1407     1.0  0.93842  0.52190  0.21855  1.0000
  C   C1408     1.0  0.80116  0.94376  0.20318  1.0000
  C   C1409     1.0  0.72231  0.96560  0.15209  1.0000
  S   S311      1.0  0.83055  0.49126  0.10009  1.0000
  C   C1410     1.0  0.79450  0.49460  0.00540  1.0000
  C   C1411     1.0  0.59652  0.95694  0.01081  1.0000
  C   C1412     1.0  0.50713  0.67105  0.15829  1.0000
  N   N77       1.0  0.53016  0.67944  0.17467  1.0000
  H   H2477     1.0  0.55614  0.75065  0.20606  1.0000
  N   N78       1.0  0.52633  0.48644  0.17900  1.0000
  S   S312      1.0  0.78455  0.75479  0.24054  1.0000
  H   H2478     1.0  0.86750  0.94118  0.22977  1.0000
  H   H2479     1.0  0.77853  0.92382  0.24810  1.0000
  H   H2480     1.0  0.79524  0.49337  0.18813  1.0000
  S   S313      1.0  0.63187  0.48397  0.10542  1.0000
  C   C1413     1.0  0.97051  0.59293  0.19057  1.0000
  H   H2481     1.0  0.70533  0.48292  0.00157  1.0000
  H   H2482     1.0  0.74231  0.84641  0.21889  1.0000
  H   H2483     1.0  0.49033  0.48558  0.17003  1.0000
  H   H2484     1.0  0.95140  0.97655  0.10224  1.0000
  C   C1414     1.0  0.85253  0.97675  0.03218  1.0000
  H   H2485     1.0  0.86202  0.97688  0.04857  1.0000
  H   H2486     1.0  0.64131  0.96839  0.20611  1.0000
  H   H2487     1.0  0.93254  0.48167  0.18940  1.0000
  H   H2488     1.0  0.89892  0.48487  0.24548  1.0000
  H   H2489     1.0  0.75349  0.90120  0.00333  1.0000
  H   H2490     1.0  0.93747  0.48142  0.24687  1.0000
  C   C1415     1.0  0.48309  0.54160  0.24263  1.0000
  H   H2491     1.0  0.49026  0.52768  0.24133  1.0000
  H   H2492     1.0  0.47469  0.94439  0.24450  1.0000
  H   H2493     1.0  0.54458  0.97368  0.15821  1.0000
  H   H2494     1.0  0.52897  0.97759  0.13248  1.0000
  H   H2495     1.0  0.51400  0.97263  0.16137  1.0000
  C   C1416     1.0  0.96716  0.47970  0.03025  1.0000
  H   H2496     1.0  0.56596  0.47947  0.00745  1.0000
  Fe  Fe158     1.0  0.84874  0.87788  0.48565  1.0000
  H   H2497     1.0  0.52812  0.96379  0.27433  1.0000
  H   H2498     1.0  0.69978  0.65189  0.25581  1.0000
  Fe  Fe159     1.0  0.84827  0.87868  0.43169  1.0000
  S   S314      1.0  0.81319  0.88370  0.43136  1.0000
  S   S315      1.0  0.87091  0.87534  0.40064  1.0000
  Fe  Fe160     1.0  0.83267  0.91250  0.46159  1.0000
  S   S316      1.0  0.83684  0.95300  0.46599  1.0000
  Fe  Fe161     1.0  0.79730  0.85171  0.45884  1.0000
  S   S317      1.0  0.75555  0.81691  0.45554  1.0000
  S   S318      1.0  0.86873  0.90965  0.45926  1.0000
  S   S319      1.0  0.83209  0.84628  0.45829  1.0000
  S   S320      1.0  0.81285  0.88104  0.48871  1.0000
  S   S321      1.0  0.83524  0.86477  0.29270  1.0000
  Fe  Fe162     1.0  0.63105  0.60032  0.47942  1.0000
  S   S322      1.0  0.60139  0.59629  0.45243  1.0000
  H   H2499     1.0  0.89565  0.94818  0.26422  1.0000
  Fe  Fe163     1.0  0.66933  0.65834  0.46433  1.0000
  S   S323      1.0  0.64157  0.65738  0.43708  1.0000
  S   S324      1.0  0.70968  0.69461  0.46916  1.0000
  Fe  Fe164     1.0  0.61067  0.63594  0.46405  1.0000
  S   S325      1.0  0.63192  0.64542  0.25952  1.0000
  Fe  Fe165     1.0  0.63498  0.61807  0.42771  1.0000
  S   S326      1.0  0.63523  0.60737  0.38935  1.0000
  H   H2500     1.0  0.49633  0.91682  0.41952  1.0000
  S   S327      1.0  0.66465  0.61961  0.45369  1.0000
  Fe  Fe166     1.0  0.59351  0.63993  0.27127  1.0000
  S   S328      1.0  0.58738  0.64667  0.30961  1.0000
  C   C1417     1.0  0.62127  0.61787  0.36746  1.0000
  C   C1418     1.0  0.62552  0.61509  0.34351  1.0000
  C   C1419     1.0  0.61497  0.62355  0.32566  1.0000
  C   C1420     1.0  0.60023  0.63509  0.33163  1.0000
  C   C1421     1.0  0.59584  0.63775  0.35559  1.0000
  C   C1422     1.0  0.60619  0.62903  0.37345  1.0000
  H   H2501     1.0  0.63694  0.60624  0.33872  1.0000
  H   H2502     1.0  0.61823  0.62107  0.30731  1.0000
  H   H2503     1.0  0.58417  0.64632  0.36035  1.0000
  H   H2504     1.0  0.60233  0.63073  0.39185  1.0000
  H   H2505     1.0  0.57910  0.94399  0.48212  1.0000
  C   C1423     1.0  0.94667  0.88952  0.43677  1.0000
  H   H2506     1.0  0.92998  0.89300  0.43483  1.0000
  H   H2507     1.0  0.52772  0.53908  0.45573  1.0000
  C   C1424     1.0  0.74352  0.78288  0.45837  1.0000
  C   C1425     1.0  0.75920  0.77285  0.46586  1.0000
  C   C1426     1.0  0.74856  0.74586  0.46869  1.0000
  C   C1427     1.0  0.72219  0.72838  0.46386  1.0000
  C   C1428     1.0  0.70658  0.73835  0.45595  1.0000
  C   C1429     1.0  0.71712  0.76538  0.45349  1.0000
  H   H2508     1.0  0.49039  0.90364  0.48601  1.0000
  H   H2509     1.0  0.51712  0.97538  0.48080  1.0000
  H   H2510     1.0  0.68630  0.72530  0.45217  1.0000
  H   H2511     1.0  0.70471  0.77287  0.44796  1.0000
  H   H2512     1.0  0.53579  0.74189  0.48592  1.0000
  H   H2513     1.0  0.51886  0.58447  0.46750  1.0000
  H   H2514     1.0  0.56229  0.97444  0.27831  1.0000
  C   C1430     1.0  0.86046  0.87190  0.37075  1.0000
  C   C1431     1.0  0.87555  0.86937  0.35295  1.0000
  C   C1432     1.0  0.86806  0.86696  0.32897  1.0000
  C   C1433     1.0  0.84527  0.86688  0.32259  1.0000
  C   C1434     1.0  0.83016  0.86934  0.34040  1.0000
  C   C1435     1.0  0.83761  0.87170  0.36436  1.0000
  H   H2515     1.0  0.89327  0.86953  0.35768  1.0000
  H   H2516     1.0  0.88008  0.86548  0.31543  1.0000
  H   H2517     1.0  0.81263  0.86956  0.33564  1.0000
  H   H2518     1.0  0.82585  0.87368  0.37785  1.0000
  H   H2519     1.0  0.68167  0.70838  0.49942  1.0000
  H   H2520     1.0  0.85579  0.81326  0.44597  1.0000
  H   H2521     1.0  0.56467  0.72382  0.48705  1.0000
  C   C1436     1.0  0.49879  0.73562  0.49764  1.0000
  C   C1437     1.0  0.96796  0.66338  0.48461  1.0000
  H   H2522     1.0  0.80388  0.48434  0.45442  1.0000
  H   H2523     1.0  0.82482  0.90442  0.26389  1.0000
  C   C1438     1.0  0.50656  0.93807  0.46528  1.0000
  H   H2524     1.0  0.85890  0.95449  0.25410  1.0000
  C   C1439     1.0  0.89519  0.84423  0.45257  1.0000
  H   H2525     1.0  0.84631  0.53014  0.46407  1.0000
  H   H2526     1.0  0.85171  0.48196  0.47218  1.0000
  H   H2527     1.0  0.51072  0.50381  0.48091  1.0000
  C   C1440     1.0  0.53247  0.90834  0.43402  1.0000
  H   H2528     1.0  0.82701  0.48593  0.43411  1.0000
  H   H2529     1.0  0.89568  0.85312  0.43523  1.0000
  H   H2530     1.0  0.55720  0.73076  0.45811  1.0000
  H   H2531     1.0  0.50519  0.86949  0.44285  1.0000
  N   N79       1.0  0.94453  0.87555  0.45962  1.0000
  H   H2532     1.0  0.59854  0.52679  0.47509  1.0000
  C   C1441     1.0  0.92223  0.84800  0.45927  1.0000
  C   C1442     1.0  0.52671  0.69402  0.47260  1.0000
  H   H2533     1.0  0.82873  0.95130  0.27782  1.0000
  H   H2534     1.0  0.52724  0.90460  0.41498  1.0000
  C   C1443     1.0  0.94886  0.87656  0.41386  1.0000
  N   N80       1.0  0.67855  0.72030  0.37427  1.0000
  C   C1444     1.0  0.66559  0.70776  0.35116  1.0000
  C   C1445     1.0  0.65856  0.71940  0.39149  1.0000
  C   C1446     1.0  0.69759  0.74852  0.36950  1.0000
  C   C1447     1.0  0.69353  0.70832  0.38493  1.0000
  C   C1448     1.0  0.68192  0.67872  0.38212  1.0000
  C   C1449     1.0  0.68418  0.71096  0.33058  1.0000
  C   C1450     1.0  0.71145  0.76512  0.39171  1.0000
  C   C1451     1.0  0.63129  0.69492  0.39129  1.0000
  C   C1452     1.0  0.61422  0.69574  0.41111  1.0000
  C   C1453     1.0  0.69840  0.66964  0.39539  1.0000
  C   C1454     1.0  0.66992  0.69156  0.31069  1.0000
  C   C1455     1.0  0.73037  0.79320  0.38507  1.0000
  H   H2535     1.0  0.65327  0.71582  0.34486  1.0000
  H   H2536     1.0  0.65186  0.68671  0.35359  1.0000
  H   H2537     1.0  0.66604  0.72233  0.40997  1.0000
  H   H2538     1.0  0.65482  0.73567  0.38802  1.0000
  H   H2539     1.0  0.68766  0.75768  0.36018  1.0000
  H   H2540     1.0  0.71329  0.75061  0.35744  1.0000
  H   H2541     1.0  0.71337  0.71718  0.37721  1.0000
  H   H2542     1.0  0.69689  0.71278  0.40418  1.0000
  H   H2543     1.0  0.68128  0.67320  0.36329  1.0000
  H   H2544     1.0  0.66210  0.66788  0.38917  1.0000
  H   H2545     1.0  0.69257  0.73068  0.32296  1.0000
  H   H2546     1.0  0.70036  0.70827  0.33679  1.0000
  H   H2547     1.0  0.72266  0.75747  0.40106  1.0000
  H   H2548     1.0  0.69725  0.76535  0.40425  1.0000
  H   H2549     1.0  0.62112  0.69325  0.37431  1.0000
  H   H2550     1.0  0.63260  0.67737  0.39371  1.0000
  H   H2551     1.0  0.61112  0.71249  0.40881  1.0000
  H   H2552     1.0  0.59503  0.67770  0.41071  1.0000
  H   H2553     1.0  0.62320  0.69704  0.42868  1.0000
  H   H2554     1.0  0.71865  0.67966  0.38875  1.0000
  H   H2555     1.0  0.69851  0.67331  0.41467  1.0000
  H   H2556     1.0  0.69014  0.64852  0.39273  1.0000
  H   H2557     1.0  0.66296  0.67151  0.31693  1.0000
  H   H2558     1.0  0.65299  0.69308  0.30438  1.0000
  H   H2559     1.0  0.68323  0.69543  0.29555  1.0000
  H   H2560     1.0  0.74545  0.79440  0.37279  1.0000
  H   H2561     1.0  0.71987  0.80219  0.37669  1.0000
  H   H2562     1.0  0.74020  0.80440  0.40130  1.0000
  H   H2563     1.0  0.96206  0.93031  0.46830  1.0000
  H   H2564     1.0  0.88272  0.96655  0.43510  1.0000
  C   C1456     1.0  0.55638  0.90545  0.43780  1.0000
  H   H2565     1.0  0.73813  0.79678  0.28225  1.0000
  H   H2566     1.0  0.95501  0.66538  0.47163  1.0000
  S   S329      1.0  0.63857  0.63944  0.49241  1.0000
  H   H2567     1.0  0.55240  0.88603  0.43190  1.0000
  H   H2568     1.0  0.87311  0.80555  0.46769  1.0000
  S   S330      1.0  0.85435  0.81607  0.25577  1.0000
  C   C1457     1.0  0.59459  0.51891  0.49279  1.0000
  H   H2569     1.0  0.53889  0.57240  0.49994  1.0000
  C   C1458     1.0  0.51516  0.72661  0.48341  1.0000
  C   C1459     1.0  0.87496  0.81550  0.45062  1.0000
  H   H2570     1.0  0.96815  0.87793  0.41311  1.0000
  H   H2571     1.0  0.77948  0.78591  0.46977  1.0000
  C   C1460     1.0  0.50951  0.88883  0.44953  1.0000
  H   H2572     1.0  0.94512  0.48360  0.47650  1.0000
  H   H2573     1.0  0.48792  0.55048  0.26053  1.0000
  H   H2574     1.0  0.57293  0.92035  0.42743  1.0000
  C   C1461     1.0  0.52452  0.50921  0.49597  1.0000
  H   H2575     1.0  0.88649  0.82270  0.31650  1.0000
  H   H2576     1.0  0.92104  0.88999  0.47578  1.0000
  C   C1462     1.0  0.63566  0.70779  0.48655  1.0000
  H   H2577     1.0  0.48256  0.95340  0.47869  1.0000
  H   H2578     1.0  0.76518  0.87122  0.25502  1.0000
  H   H2579     1.0  0.96692  0.53181  0.46345  1.0000
  H   H2580     1.0  0.92582  0.83592  0.44667  1.0000
  H   H2581     1.0  0.87208  0.79129  0.33020  1.0000
  H   H2582     1.0  0.54752  0.58753  0.45339  1.0000
  H   H2583     1.0  0.52592  0.67555  0.47709  1.0000
  C   C1463     1.0  0.53720  0.55474  0.49171  1.0000
  C   C1464     1.0  0.90016  0.48972  0.49305  1.0000
  C   C1465     1.0  0.85761  0.51993  0.46532  1.0000
  H   H2584     1.0  0.66809  0.62302  0.25769  1.0000
  H   H2585     1.0  0.51641  0.56993  0.43900  1.0000
  H   H2586     1.0  0.92049  0.83888  0.47691  1.0000
  H   H2587     1.0  0.50045  0.53716  0.47120  1.0000
  H   H2588     1.0  0.75862  0.78835  0.26558  1.0000
  H   H2589     1.0  0.77250  0.81933  0.28062  1.0000
  C   C1466     1.0  0.48622  0.90916  0.46844  1.0000
  C   C1467     1.0  0.52164  0.54942  0.46828  1.0000
  C   C1468     1.0  0.52647  0.57441  0.45638  1.0000
  Fe  Fe167     1.0  0.84472  0.84791  0.26045  1.0000
  H   H2590     1.0  0.93343  0.85602  0.41255  1.0000
  H   H2591     1.0  0.64393  0.70156  0.47207  1.0000
  H   H2592     1.0  0.52616  0.94116  0.46924  1.0000
  H   H2593     1.0  0.88041  0.80610  0.43655  1.0000
  H   H2594     1.0  0.82125  0.81882  0.38678  1.0000
  C   C1469     1.0  0.89933  0.97448  0.42262  1.0000
  S   S331      1.0  0.56952  0.60227  0.25203  1.0000
  H   H2595     1.0  0.96370  0.59607  0.44947  1.0000
  C   C1470     1.0  0.94653  0.89033  0.39199  1.0000
  C   C1471     1.0  0.93923  0.88950  0.47921  1.0000
  H   H2596     1.0  0.51686  0.89027  0.46797  1.0000
  H   H2597     1.0  0.56204  0.90794  0.45675  1.0000
  H   H2598     1.0  0.80933  0.97651  0.29247  1.0000
  H   H2599     1.0  0.86822  0.52234  0.44853  1.0000
  C   C1472     1.0  0.50158  0.95485  0.48254  1.0000
  H   H2600     1.0  0.56256  0.69415  0.44156  1.0000
  S   S332      1.0  0.57864  0.64526  0.46809  1.0000
  H   H2601     1.0  0.50633  0.94518  0.44727  1.0000
  N   N81       1.0  0.48502  0.89071  0.44958  1.0000
  H   H2602     1.0  0.92729  0.88920  0.39154  1.0000
  H   H2603     1.0  0.78134  0.95881  0.27370  1.0000
  H   H2604     1.0  0.96808  0.84938  0.43736  1.0000
  H   H2605     1.0  0.88825  0.85282  0.46606  1.0000
  H   H2606     1.0  0.48208  0.84667  0.47507  1.0000
  H   H2607     1.0  0.52662  0.62948  0.48191  1.0000
  C   C1473     1.0  0.81330  0.95154  0.26693  1.0000
  N   N82       1.0  0.51149  0.70041  0.49001  1.0000
  C   C1474     1.0  0.57236  0.95425  0.49309  1.0000
  H   H2608     1.0  0.59152  0.71996  0.45492  1.0000
  H   H2609     1.0  0.91597  0.50061  0.48096  1.0000
  H   H2610     1.0  0.86795  0.92815  0.28248  1.0000
  H   H2611     1.0  0.76090  0.73849  0.47482  1.0000
  C   C1475     1.0  0.48294  0.68096  0.48729  1.0000
  C   C1476     1.0  0.79685  0.95760  0.28365  1.0000
  H   H2612     1.0  0.83070  0.48997  0.48821  1.0000
  H   H2613     1.0  0.95766  0.60201  0.47922  1.0000
  H   H2614     1.0  0.47881  0.88367  0.41207  1.0000
  H   H2615     1.0  0.91197  0.96622  0.42690  1.0000
  H   H2616     1.0  0.50764  0.76850  0.47479  1.0000
  H   H2617     1.0  0.87213  0.52893  0.47980  1.0000
  H   H2618     1.0  0.81165  0.79175  0.40626  1.0000
  C   C1477     1.0  0.57148  0.70409  0.45851  1.0000
  H   H2619     1.0  0.86857  0.79406  0.29870  1.0000
  H   H2620     1.0  0.61937  0.69039  0.49479  1.0000
  H   H2621     1.0  0.53801  0.92861  0.43786  1.0000
  C   C1478     1.0  0.47998  0.89802  0.42538  1.0000
  N   N83       1.0  0.79466  0.77572  0.32394  1.0000
  C   C1479     1.0  0.82028  0.77694  0.31936  1.0000
  C   C1480     1.0  0.77399  0.74769  0.32641  1.0000
  C   C1481     1.0  0.78887  0.78833  0.30350  1.0000
  C   C1482     1.0  0.79556  0.78991  0.34635  1.0000
  C   C1483     1.0  0.80376  0.78125  0.36911  1.0000
  C   C1484     1.0  0.84473  0.80416  0.32070  1.0000
  C   C1485     1.0  0.76181  0.78639  0.30382  1.0000
  C   C1486     1.0  0.76769  0.73100  0.30364  1.0000
  C   C1487     1.0  0.74801  0.70263  0.30856  1.0000
  C   C1488     1.0  0.80606  0.79844  0.39013  1.0000
  C   C1489     1.0  0.86941  0.80285  0.31624  1.0000
  C   C1490     1.0  0.75760  0.79849  0.28168  1.0000
  H   H2622     1.0  0.82038  0.76942  0.30135  1.0000
  H   H2623     1.0  0.82317  0.76406  0.33171  1.0000
  H   H2624     1.0  0.77986  0.73815  0.34006  1.0000
  H   H2625     1.0  0.75557  0.74592  0.33309  1.0000
  H   H2626     1.0  0.79108  0.78050  0.28632  1.0000
  H   H2627     1.0  0.80342  0.80931  0.30281  1.0000
  H   H2628     1.0  0.80848  0.81117  0.34413  1.0000
  H   H2629     1.0  0.77614  0.78743  0.35015  1.0000
  H   H2630     1.0  0.82279  0.78227  0.36703  1.0000
  H   H2631     1.0  0.78908  0.76108  0.37372  1.0000
  H   H2632     1.0  0.84372  0.81708  0.30722  1.0000
  H   H2633     1.0  0.84688  0.81309  0.33835  1.0000
  H   H2634     1.0  0.76006  0.79690  0.31925  1.0000
  H   H2635     1.0  0.74585  0.76603  0.30449  1.0000
  H   H2636     1.0  0.75934  0.73783  0.28976  1.0000
  H   H2637     1.0  0.78533  0.73169  0.29637  1.0000
  H   H2638     1.0  0.74471  0.69104  0.29222  1.0000
  H   H2639     1.0  0.75531  0.69475  0.32250  1.0000
  H   H2640     1.0  0.72916  0.70049  0.31411  1.0000
  H   H2641     1.0  0.78729  0.79767  0.39356  1.0000
  C   C1491     1.0  0.83969  0.49129  0.47068  1.0000
  C   C1492     1.0  0.50827  0.76434  0.49384  1.0000
  C   C1493     1.0  0.55568  0.71507  0.46977  1.0000
  H   H2642     1.0  0.69668  0.62207  0.26660  1.0000
  H   H2643     1.0  0.51767  0.69059  0.45469  1.0000
  H   H2644     1.0  0.79017  0.91051  0.26941  1.0000
  H   H2645     1.0  0.96205  0.91097  0.39191  1.0000
  H   H2646     1.0  0.62789  0.71966  0.47883  1.0000
  C   C1494     1.0  0.68892  0.63055  0.25368  1.0000
  C   C1495     1.0  0.87559  0.93141  0.26413  1.0000
  H   H2647     1.0  0.95633  0.65335  0.50045  1.0000
  H   H2648     1.0  0.73924  0.70680  0.25377  1.0000
  C   C1496     1.0  0.96063  0.91805  0.48360  1.0000
  H   H2649     1.0  0.51071  0.72705  0.46430  1.0000
  H   H2650     1.0  0.67089  0.74189  0.49668  1.0000
  C   C1497     1.0  0.56326  0.63607  0.49560  1.0000
  H   H2651     1.0  0.57263  0.69015  0.47074  1.0000
  H   H2652     1.0  0.89150  0.96825  0.40446  1.0000
  H   H2653     1.0  0.94841  0.88090  0.37577  1.0000
  C   C1498     1.0  0.96985  0.87630  0.46545  1.0000
  H   H2654     1.0  0.52838  0.77636  0.50068  1.0000
  H   H2655     1.0  0.93608  0.87881  0.49613  1.0000
  H   H2656     1.0  0.48594  0.64564  0.48225  1.0000
  H   H2657     1.0  0.78788  0.94250  0.29752  1.0000
  H   H2658     1.0  0.47811  0.72474  0.49206  1.0000
  H   H2659     1.0  0.55755  0.56051  0.48674  1.0000
  C   C1499     1.0  0.79666  0.92494  0.25487  1.0000
  H   H2660     1.0  0.96126  0.56334  0.47890  1.0000
  C   C1500     1.0  0.96429  0.48782  0.48355  1.0000
  H   H2661     1.0  0.53972  0.67551  0.25811  1.0000
  H   H2662     1.0  0.96414  0.90914  0.43704  1.0000
  C   C1501     1.0  0.58018  0.49179  0.49622  1.0000
  C   C1502     1.0  0.54814  0.97824  0.26882  1.0000
  H   H2663     1.0  0.47628  0.68210  0.46910  1.0000
  C   C1503     1.0  0.53712  0.62913  0.49742  1.0000
  H   H2664     1.0  0.54359  0.51403  0.48803  1.0000
  H   H2665     1.0  0.82214  0.96748  0.25391  1.0000
  H   H2666     1.0  0.87633  0.91406  0.25823  1.0000
  H   H2667     1.0  0.96076  0.83589  0.46656  1.0000
  C   C1504     1.0  0.47452  0.65237  0.49242  1.0000
  H   H2668     1.0  0.50157  0.94862  0.50105  1.0000
  Fe  Fe168     1.0  0.50384  0.81676  0.55883  1.0000
  H   H2669     1.0  0.94439  0.86387  0.61029  1.0000
  S   S333      1.0  0.51140  0.78233  0.55964  1.0000
  Fe  Fe169     1.0  0.52050  0.87441  0.54385  1.0000
  S   S334      1.0  0.49286  0.87589  0.57016  1.0000
  H   H2670     1.0  0.95632  0.69217  0.73622  1.0000
  Fe  Fe170     1.0  0.50581  0.85544  0.59555  1.0000
  S   S335      1.0  0.51534  0.86543  0.63442  1.0000
  C   C1505     1.0  0.72224  0.67886  0.53082  1.0000
  C   C1506     1.0  0.93900  0.68132  0.70027  1.0000
  S   S336      1.0  0.53568  0.85648  0.57043  1.0000
  S   S337      1.0  0.49141  0.83444  0.52985  1.0000
  S   S338      1.0  0.52381  0.63150  0.71914  1.0000
  Fe  Fe171     1.0  0.93468  0.57116  0.54390  1.0000
  S   S339      1.0  0.54471  0.90725  0.51674  1.0000
  S   S340      1.0  0.91951  0.53679  0.51674  1.0000
  Fe  Fe172     1.0  0.94813  0.62871  0.55573  1.0000
  H   H2671     1.0  0.65445  0.68782  0.51646  1.0000
  S   S341      1.0  0.94144  0.66264  0.54620  1.0000
  S   S342      1.0  0.96176  0.57294  0.57280  1.0000
  S   S343      1.0  0.52211  0.61021  0.56660  1.0000
  Fe  Fe173     1.0  0.94587  0.59292  0.59524  1.0000
  S   S344      1.0  0.93609  0.58298  0.63404  1.0000
  C   C1507     1.0  0.48275  0.70444  0.56697  1.0000
  S   S345      1.0  0.91653  0.58885  0.56746  1.0000
  S   S346      1.0  0.92584  0.82092  0.71274  1.0000
  C   C1508     1.0  0.53776  0.62055  0.53926  1.0000
  H   H2672     1.0  0.57463  0.62791  0.55309  1.0000
  S   S347      1.0  0.87223  0.88453  0.51865  1.0000
  C   C1509     1.0  0.55117  0.56180  0.54496  1.0000
  C   C1510     1.0  0.49111  0.85074  0.65635  1.0000
  H   H2673     1.0  0.50237  0.80724  0.62550  1.0000
  C   C1511     1.0  0.49763  0.62091  0.69897  1.0000
  H   H2674     1.0  0.57612  0.58419  0.57407  1.0000
  C   C1512     1.0  0.95542  0.58909  0.67925  1.0000
  H   H2675     1.0  0.54340  0.67080  0.55308  1.0000
  H   H2676     1.0  0.56932  0.55112  0.57306  1.0000
  C   C1513     1.0  0.50267  0.62945  0.67545  1.0000
  H   H2677     1.0  0.57978  0.48978  0.55620  1.0000
  H   H2678     1.0  0.93601  0.57420  0.68396  1.0000
  C   C1514     1.0  0.48258  0.61997  0.65853  1.0000
  H   H2679     1.0  0.52228  0.64325  0.67027  1.0000
  H   H2680     1.0  0.72066  0.72060  0.55125  1.0000
  C   C1515     1.0  0.95431  0.92914  0.50527  1.0000
  H   H2681     1.0  0.87842  0.97179  0.50366  1.0000
  H   H2682     1.0  0.50959  0.56038  0.73579  1.0000
  H   H2683     1.0  0.82272  0.80583  0.57464  1.0000
  H   H2684     1.0  0.49088  0.55414  0.50424  1.0000
  C   C1516     1.0  0.58378  0.49767  0.53851  1.0000
  H   H2685     1.0  0.49558  0.76983  0.50370  1.0000
  C   C1517     1.0  0.56410  0.62816  0.53756  1.0000
  H   H2686     1.0  0.61485  0.69851  0.58805  1.0000
  H   H2687     1.0  0.50047  0.53056  0.67655  1.0000
  H   H2688     1.0  0.68343  0.75341  0.53981  1.0000
  C   C1518     1.0  0.49805  0.73166  0.56902  1.0000
  H   H2689     1.0  0.53403  0.59447  0.61181  1.0000
  C   C1519     1.0  0.96031  0.75179  0.62347  1.0000
  H   H2690     1.0  0.92329  0.72930  0.60548  1.0000
  H   H2691     1.0  0.51680  0.74008  0.57762  1.0000
  H   H2692     1.0  0.73680  0.68787  0.54522  1.0000
  C   C1520     1.0  0.54771  0.95529  0.52637  1.0000
  C   C1521     1.0  0.59871  0.52477  0.53508  1.0000
  H   H2693     1.0  0.91539  0.64081  0.66978  1.0000
  H   H2694     1.0  0.60596  0.53741  0.55031  1.0000
  C   C1522     1.0  0.53407  0.68248  0.54888  1.0000
  H   H2695     1.0  0.92685  0.51397  0.56689  1.0000
  C   C1523     1.0  0.87256  0.83897  0.51360  1.0000
  C   C1524     1.0  0.90683  0.87257  0.53720  1.0000
  C   C1525     1.0  0.91703  0.85637  0.54168  1.0000
  H   H2696     1.0  0.91590  0.89174  0.54488  1.0000
  H   H2697     1.0  0.93375  0.86300  0.55291  1.0000
  C   C1526     1.0  0.88528  0.77547  0.59955  1.0000
  C   C1527     1.0  0.57347  0.56823  0.56216  1.0000
  H   H2698     1.0  0.54036  0.52227  0.54062  1.0000
  C   C1528     1.0  0.94887  0.83352  0.68961  1.0000
  C   C1529     1.0  0.94091  0.82527  0.66623  1.0000
  H   H2699     1.0  0.86124  0.83480  0.68463  1.0000
  H   H2700     1.0  0.51633  0.87412  0.68460  1.0000
  H   H2701     1.0  0.49539  0.74360  0.62898  1.0000
  H   H2702     1.0  0.92102  0.81063  0.66277  1.0000
  H   H2703     1.0  0.48261  0.85423  0.71581  1.0000
  C   C1530     1.0  0.52428  0.62093  0.51914  1.0000
  H   H2704     1.0  0.62472  0.67463  0.58478  1.0000
  C   C1531     1.0  0.90961  0.86819  0.60721  1.0000
  H   H2705     1.0  0.49042  0.56249  0.69793  1.0000
  H   H2706     1.0  0.92957  0.72042  0.71468  1.0000
  H   H2707     1.0  0.50582  0.48829  0.61369  1.0000
  H   H2708     1.0  0.97011  0.59390  0.71506  1.0000
  C   C1532     1.0  0.66919  0.70486  0.55810  1.0000
  C   C1533     1.0  0.51192  0.72452  0.66241  1.0000
  N   N84       1.0  0.52670  0.53243  0.50892  1.0000
  C   C1534     1.0  0.66965  0.70846  0.51434  1.0000
  H   H2709     1.0  0.51474  0.67323  0.55750  1.0000
  H   H2710     1.0  0.96713  0.73876  0.61666  1.0000
  N   N85       1.0  0.68565  0.71820  0.53673  1.0000
  H   H2711     1.0  0.84786  0.81655  0.61171  1.0000
  C   C1535     1.0  0.52972  0.59041  0.65077  1.0000
  C   C1536     1.0  0.60417  0.53569  0.51222  1.0000
  H   H2712     1.0  0.95496  0.66569  0.61532  1.0000
  C   C1537     1.0  0.93603  0.64699  0.67396  1.0000
  C   C1538     1.0  0.48799  0.78386  0.66795  1.0000
  H   H2713     1.0  0.53369  0.55674  0.55572  1.0000
  C   C1539     1.0  0.69898  0.68267  0.53519  1.0000
  H   H2714     1.0  0.93766  0.62924  0.67253  1.0000
  H   H2715     1.0  0.53495  0.94585  0.54115  1.0000
  H   H2716     1.0  0.66056  0.68354  0.55660  1.0000
  H   H2717     1.0  0.64510  0.70434  0.60088  1.0000
  H   H2718     1.0  0.79827  0.96570  0.63409  1.0000
  C   C1540     1.0  0.53105  0.68337  0.52212  1.0000
  S   S348      1.0  0.47263  0.62988  0.59027  1.0000
  H   H2719     1.0  0.63123  0.69969  0.54807  1.0000
  H   H2720     1.0  0.93151  0.76212  0.61211  1.0000
  H   H2721     1.0  0.87654  0.80238  0.65335  1.0000
  H   H2722     1.0  0.48682  0.62638  0.64040  1.0000
  C   C1541     1.0  0.90478  0.83128  0.53260  1.0000
  H   H2723     1.0  0.53643  0.55926  0.62676  1.0000
  H   H2724     1.0  0.49740  0.51579  0.53604  1.0000
  H   H2725     1.0  0.93441  0.51348  0.73895  1.0000
  N   N86       1.0  0.94260  0.65803  0.69872  1.0000
  H   H2726     1.0  0.52574  0.60115  0.66463  1.0000
  H   H2727     1.0  0.47401  0.53567  0.55523  1.0000
  C   C1542     1.0  0.49544  0.67917  0.71994  1.0000
  H   H2728     1.0  0.90325  0.63436  0.71168  1.0000
  H   H2729     1.0  0.88950  0.83149  0.68931  1.0000
  H   H2730     1.0  0.55042  0.69026  0.51409  1.0000
  H   H2731     1.0  0.48103  0.56641  0.63228  1.0000
  C   C1543     1.0  0.89688  0.50271  0.51249  1.0000
  H   H2732     1.0  0.50392  0.69707  0.52754  1.0000
  H   H2733     1.0  0.70765  0.79241  0.51498  1.0000
  H   H2734     1.0  0.52220  0.51916  0.64681  1.0000
  H   H2735     1.0  0.54633  0.70225  0.55618  1.0000
  C   C1544     1.0  0.50038  0.52558  0.51862  1.0000
  H   H2736     1.0  0.55248  0.64329  0.64225  1.0000
  H   H2737     1.0  0.83217  0.83086  0.55274  1.0000
  H   H2738     1.0  0.48854  0.50790  0.64133  1.0000
  C   C1545     1.0  0.94517  0.71971  0.72495  1.0000
  C   C1546     1.0  0.50832  0.52021  0.63426  1.0000
  H   H2739     1.0  0.69044  0.67321  0.55231  1.0000
  H   H2740     1.0  0.49618  0.91965  0.60005  1.0000
  H   H2741     1.0  0.92198  0.68001  0.73506  1.0000
  C   C1547     1.0  0.95236  0.71335  0.54116  1.0000
  C   C1548     1.0  0.48963  0.74810  0.55952  1.0000
  H   H2742     1.0  0.93522  0.70516  0.53005  1.0000
  H   H2743     1.0  0.64681  0.72853  0.51928  1.0000
  H   H2744     1.0  0.89526  0.77487  0.61597  1.0000
  H   H2745     1.0  0.85034  0.80900  0.64845  1.0000
  H   H2746     1.0  0.82253  0.83544  0.58171  1.0000
  H   H2747     1.0  0.91971  0.67655  0.69286  1.0000
  C   C1549     1.0  0.51531  0.54885  0.63110  1.0000
  C   C1550     1.0  0.52023  0.70143  0.51535  1.0000
  H   H2748     1.0  0.87264  0.49773  0.54243  1.0000
  H   H2749     1.0  0.85758  0.80351  0.69095  1.0000
  S   S349      1.0  0.91657  0.81048  0.53950  1.0000
  C   C1551     1.0  0.71941  0.76370  0.52167  1.0000
  C   C1552     1.0  0.49699  0.85889  0.67997  1.0000
  H   H2750     1.0  0.56515  0.54341  0.52099  1.0000
  C   C1553     1.0  0.50982  0.56408  0.69765  1.0000
  H   H2751     1.0  0.59185  0.57466  0.55232  1.0000
  H   H2752     1.0  0.87061  0.83080  0.56975  1.0000
  H   H2753     1.0  0.86341  0.79256  0.58638  1.0000
  H   H2754     1.0  0.53684  0.69335  0.71828  1.0000
  H   H2755     1.0  0.91237  0.60041  0.69847  1.0000
  H   H2756     1.0  0.78542  0.96681  0.53240  1.0000
  C   C1554     1.0  0.92318  0.63780  0.71535  1.0000
  H   H2757     1.0  0.94062  0.88157  0.63434  1.0000
  S   S350      1.0  0.97069  0.81498  0.58080  1.0000
  C   C1555     1.0  0.53128  0.60442  0.62715  1.0000
  H   H2758     1.0  0.71939  0.72039  0.51977  1.0000
  H   H2759     1.0  0.53053  0.48608  0.52302  1.0000
  H   H2760     1.0  0.51104  0.91801  0.62730  1.0000
  H   H2761     1.0  0.73158  0.68746  0.51365  1.0000
  H   H2762     1.0  0.73083  0.80060  0.53896  1.0000
  H   H2763     1.0  0.96713  0.53502  0.74887  1.0000
  H   H2764     1.0  0.87049  0.86044  0.57554  1.0000
  H   H2765     1.0  0.96138  0.75291  0.53518  1.0000
  C   C1556     1.0  0.72500  0.79163  0.52116  1.0000
  C   C1557     1.0  0.50591  0.79069  0.62792  1.0000
  H   H2766     1.0  0.49596  0.50820  0.59781  1.0000
  H   H2767     1.0  0.47658  0.64995  0.51160  1.0000
  C   C1558     1.0  0.50642  0.74674  0.66608  1.0000
  H   H2768     1.0  0.80444  0.95381  0.51989  1.0000
  C   C1559     1.0  0.87578  0.48827  0.52751  1.0000
  C   C1560     1.0  0.53471  0.80194  0.63505  1.0000
  C   C1561     1.0  0.55251  0.82382  0.61842  1.0000
  H   H2769     1.0  0.95484  0.91884  0.52141  1.0000
  H   H2770     1.0  0.90925  0.84666  0.64921  1.0000
  C   C1562     1.0  0.52328  0.69796  0.72775  1.0000
  H   H2771     1.0  0.52490  0.58477  0.69911  1.0000
  S   S351      1.0  0.96389  0.61103  0.52989  1.0000
  H   H2772     1.0  0.50439  0.78229  0.61009  1.0000
  C   C1563     1.0  0.95674  0.90361  0.60298  1.0000
  H   H2773     1.0  0.51066  0.56530  0.53010  1.0000
  C   C1564     1.0  0.47578  0.68501  0.73275  1.0000
  H   H2774     1.0  0.48971  0.69221  0.57415  1.0000
  H   H2775     1.0  0.91150  0.82164  0.61824  1.0000
  H   H2776     1.0  0.71563  0.65785  0.53020  1.0000
  H   H2777     1.0  0.52531  0.76489  0.66699  1.0000
  H   H2778     1.0  0.53142  0.55233  0.72094  1.0000
  H   H2779     1.0  0.49998  0.73258  0.51676  1.0000
  C   C1565     1.0  0.88476  0.86397  0.52302  1.0000
  H   H2780     1.0  0.90675  0.82836  0.58885  1.0000
  H   H2781     1.0  0.53866  0.81005  0.65318  1.0000
  H   H2782     1.0  0.54020  0.78673  0.63363  1.0000
  H   H2783     1.0  0.54964  0.81688  0.59982  1.0000
  H   H2784     1.0  0.54854  0.84013  0.61971  1.0000
  H   H2785     1.0  0.57310  0.83113  0.62338  1.0000
  H   H2786     1.0  0.95218  0.91886  0.60815  1.0000
  H   H2787     1.0  0.96330  0.79793  0.70882  1.0000
  H   H2788     1.0  0.93476  0.92718  0.50351  1.0000
  H   H2789     1.0  0.89919  0.78170  0.58461  1.0000
  C   C1566     1.0  0.83282  0.82709  0.57191  1.0000
  C   C1567     1.0  0.86968  0.82210  0.68160  1.0000
  S   S352      1.0  0.62185  0.57031  0.50923  1.0000
  H   H2790     1.0  0.53004  0.51972  0.60337  1.0000
  C   C1568     1.0  0.93815  0.87800  0.61501  1.0000
  H   H2791     1.0  0.48284  0.70579  0.72925  1.0000
  C   C1569     1.0  0.96986  0.78496  0.70131  1.0000
  H   H2792     1.0  0.92769  0.64472  0.73398  1.0000
  C   C1570     1.0  0.88241  0.82247  0.51868  1.0000
  H   H2793     1.0  0.73783  0.76415  0.52624  1.0000
  H   H2794     1.0  0.92716  0.49747  0.59343  1.0000
  H   H2795     1.0  0.65165  0.72956  0.56391  1.0000
  C   C1571     1.0  0.65633  0.72354  0.50510  1.0000
  C   C1572     1.0  0.49454  0.54804  0.52168  1.0000
  C   C1573     1.0  0.51015  0.50847  0.61079  1.0000
  H   H2796     1.0  0.59701  0.64129  0.51451  1.0000
  H   H2797     1.0  0.49356  0.70568  0.66143  1.0000
  C   C1574     1.0  0.70732  0.71181  0.53586  1.0000
  Fe  Fe174     1.0  0.48149  0.60377  0.56855  1.0000
  N   N87       1.0  0.50999  0.56186  0.65166  1.0000
  H   H2798     1.0  0.90461  0.57511  0.73460  1.0000
  H   H2799     1.0  0.52862  0.71824  0.72376  1.0000
  H   H2800     1.0  0.86078  0.78669  0.61750  1.0000
  H   H2801     1.0  0.97078  0.66183  0.72510  1.0000
  H   H2802     1.0  0.68463  0.67256  0.52090  1.0000
  C   C1575     1.0  0.47792  0.84764  0.69768  1.0000
  H   H2803     1.0  0.55658  0.57948  0.53464  1.0000
  C   C1576     1.0  0.55559  0.94117  0.51216  1.0000
  C   C1577     1.0  0.57449  0.48086  0.51906  1.0000
  C   C1578     1.0  0.64569  0.70881  0.56252  1.0000
  H   H2804     1.0  0.70734  0.75287  0.55777  1.0000
  H   H2805     1.0  0.95256  0.82906  0.62950  1.0000
  H   H2806     1.0  0.88571  0.59120  0.73518  1.0000
  C   C1579     1.0  0.54620  0.53898  0.52863  1.0000
  H   H2807     1.0  0.85784  0.84948  0.61600  1.0000
  H   H2808     1.0  0.55422  0.64186  0.61054  1.0000
  C   C1580     1.0  0.94057  0.69215  0.72561  1.0000
  H   H2809     1.0  0.49668  0.53009  0.72015  1.0000
  H   H2810     1.0  0.91004  0.86890  0.58762  1.0000
  H   H2811     1.0  0.95172  0.50545  0.57094  1.0000
  H   H2812     1.0  0.86912  0.75565  0.59572  1.0000
  C   C1581     1.0  0.93944  0.74964  0.60627  1.0000
  C   C1582     1.0  0.92172  0.61111  0.71500  1.0000
  C   C1583     1.0  0.63185  0.69575  0.58549  1.0000
  H   H2813     1.0  0.94134  0.61350  0.71650  1.0000
  H   H2814     1.0  0.51819  0.66339  0.51598  1.0000
  N   N88       1.0  0.88960  0.84149  0.61555  1.0000
  C   C1584     1.0  0.86333  0.83629  0.60695  1.0000
  C   C1585     1.0  0.88995  0.84219  0.64226  1.0000
  H   H2815     1.0  0.88683  0.85816  0.64859  1.0000
  C   C1586     1.0  0.89687  0.82215  0.60633  1.0000
  C   C1587     1.0  0.87458  0.79389  0.60261  1.0000
  C   C1588     1.0  0.86108  0.83955  0.58000  1.0000
  C   C1589     1.0  0.49346  0.91720  0.61948  1.0000
  C   C1590     1.0  0.87041  0.81709  0.65518  1.0000
  H   H2816     1.0  0.95549  0.90142  0.58343  1.0000
  S   S353      1.0  0.47519  0.81563  0.58509  1.0000
  H   H2817     1.0  0.50398  0.61489  0.52021  1.0000
  H   H2818     1.0  0.95508  0.68397  0.65419  1.0000
  H   H2819     1.0  0.74114  0.80305  0.50867  1.0000
  C   C1591     1.0  0.96112  0.59695  0.65557  1.0000
  C   C1592     1.0  0.69809  0.74711  0.53996  1.0000
  C   C1593     1.0  0.96962  0.66403  0.70573  1.0000
  H   H2820     1.0  0.48824  0.77583  0.71786  1.0000
  H   H2821     1.0  0.49690  0.74397  0.68355  1.0000
  H   H2822     1.0  0.68152  0.71082  0.57435  1.0000
  H   H2823     1.0  0.48069  0.57097  0.66292  1.0000
  H   H2824     1.0  0.95324  0.69736  0.68911  1.0000
  H   H2825     1.0  0.49193  0.65959  0.72398  1.0000
  C   C1594     1.0  0.48856  0.74716  0.64620  1.0000
  N   N89       1.0  0.48581  0.77098  0.64438  1.0000
  H   H2826     1.0  0.53569  0.72134  0.52025  1.0000
  H   H2827     1.0  0.50539  0.55016  0.61482  1.0000
  C   C1595     1.0  0.57676  0.63561  0.51570  1.0000
  H   H2828     1.0  0.51334  0.60543  0.62420  1.0000
  H   H2829     1.0  0.49444  0.68075  0.70048  1.0000
  Fe  Fe175     1.0  0.95829  0.83117  0.55113  1.0000
  H   H2830     1.0  0.90423  0.88279  0.61298  1.0000
  H   H2831     1.0  0.52374  0.72390  0.67737  1.0000
  H   H2832     1.0  0.48459  0.51116  0.50702  1.0000
  H   H2833     1.0  0.52300  0.72739  0.64581  1.0000
  C   C1596     1.0  0.55412  0.63212  0.62731  1.0000
  H   H2834     1.0  0.94504  0.72656  0.74318  1.0000
  H   H2835     1.0  0.57278  0.63217  0.62877  1.0000
  C   C1597     1.0  0.51503  0.48416  0.51083  1.0000
  C   C1598     1.0  0.95976  0.69673  0.55201  1.0000
  H   H2836     1.0  0.50640  0.78879  0.67709  1.0000
  H   H2837     1.0  0.48918  0.80290  0.66530  1.0000
  C   C1599     1.0  0.95866  0.83569  0.64738  1.0000
  H   H2838     1.0  0.96436  0.73299  0.71699  1.0000
  C   C1600     1.0  0.51371  0.55169  0.67496  1.0000
  C   C1601     1.0  0.96717  0.74053  0.54409  1.0000
  H   H2839     1.0  0.53366  0.55438  0.67583  1.0000
  C   C1602     1.0  0.51203  0.55080  0.71992  1.0000
  H   H2840     1.0  0.95257  0.76545  0.69942  1.0000
  C   C1603     1.0  0.93093  0.49903  0.57410  1.0000
  H   H2841     1.0  0.47990  0.80042  0.71081  1.0000
  C   C1604     1.0  0.94202  0.65293  0.62950  1.0000
  H   H2842     1.0  0.96720  0.79422  0.66531  1.0000
  H   H2843     1.0  0.54948  0.59355  0.65475  1.0000
  H   H2844     1.0  0.95098  0.74491  0.64092  1.0000
  C   C1605     1.0  0.48330  0.55883  0.64953  1.0000
  H   H2845     1.0  0.92252  0.65087  0.62704  1.0000
  H   H2846     1.0  0.52555  0.69604  0.74702  1.0000
  H   H2847     1.0  0.87268  0.80287  0.51194  1.0000
  C   C1606     1.0  0.95326  0.66460  0.65371  1.0000
  H   H2848     1.0  0.94755  0.75544  0.58818  1.0000
  H   H2849     1.0  0.49151  0.93339  0.62688  1.0000
  C   C1607     1.0  0.90573  0.59425  0.73564  1.0000
  H   H2850     1.0  0.94038  0.63365  0.62758  1.0000
  C   C1608     1.0  0.47210  0.60352  0.70569  1.0000
  H   H2851     1.0  0.47346  0.87583  0.61936  1.0000
  H   H2852     1.0  0.71372  0.75553  0.50368  1.0000
  H   H2853     1.0  0.96893  0.94996  0.50718  1.0000
  H   H2854     1.0  0.82015  0.97190  0.56002  1.0000
  H   H2855     1.0  0.85519  0.83215  0.50296  1.0000
  C   C1609     1.0  0.80491  0.97187  0.52562  1.0000
  C   C1610     1.0  0.47287  0.77932  0.71061  1.0000
  H   H2856     1.0  0.80271  0.97638  0.59192  1.0000
  Fe  Fe176     1.0  0.93891  0.82686  0.75128  1.0000
  H   H2857     1.0  0.49773  0.47983  0.52150  1.0000
  H   H2858     1.0  0.47192  0.97702  0.51293  1.0000
  H   H2859     1.0  0.96520  0.49188  0.50282  1.0000
  Fe  Fe177     1.0  0.83293  0.93244  0.87962  1.0000
  S   S354      1.0  0.86245  0.95841  0.90634  1.0000
  S   S355      1.0  0.84155  0.90771  0.85291  1.0000
  Fe  Fe178     1.0  0.79380  0.95172  0.89502  1.0000
  H   H2860     1.0  0.95247  0.91872  0.80233  1.0000
  S   S356      1.0  0.75168  0.94500  0.89458  1.0000
  C   C1611     1.0  0.83754  0.86787  0.91021  1.0000
  S   S357      1.0  0.89322  0.53459  0.89184  1.0000
  Fe  Fe179     1.0  0.82938  0.94674  0.93168  1.0000
  C   C1612     1.0  0.94943  0.95941  0.91533  1.0000
  S   S358      1.0  0.82432  0.96344  0.86632  1.0000
  S   S359      1.0  0.79981  0.91835  0.90604  1.0000
  H   H2861     1.0  0.51459  0.72807  0.87790  1.0000
  S   S360      1.0  0.49653  0.62985  0.82400  1.0000
  H   H2862     1.0  0.85435  0.86455  0.90989  1.0000
  H   H2863     1.0  0.50218  0.63712  0.88254  1.0000
  S   S361      1.0  0.54262  0.65752  0.78520  1.0000
  Fe  Fe180     1.0  0.52885  0.62341  0.81028  1.0000
  S   S362      1.0  0.55287  0.61616  0.83872  1.0000
  Fe  Fe181     1.0  0.50823  0.66146  0.79664  1.0000
  S   S363      1.0  0.51304  0.70240  0.79727  1.0000
  S   S364      1.0  0.50404  0.59457  0.78235  1.0000
  C   C1613     1.0  0.94682  0.71296  0.79096  1.0000
  Fe  Fe182     1.0  0.66437  0.51357  0.90094  1.0000
  H   H2864     1.0  0.57903  0.89097  0.78558  1.0000
  S   S365      1.0  0.70412  0.51831  0.89055  1.0000
  Fe  Fe183     1.0  0.62309  0.53140  0.88984  1.0000
  H   H2865     1.0  0.90977  0.51704  0.78955  1.0000
  S   S366      1.0  0.60709  0.54734  0.86064  1.0000
  Fe  Fe184     1.0  0.63384  0.52026  0.94089  1.0000
  S   S367      1.0  0.63653  0.53068  0.97979  1.0000
  H   H2866     1.0  0.54211  0.55435  0.90286  1.0000
  S   S368      1.0  0.56038  0.92938  0.89516  1.0000
  S   S369      1.0  0.65970  0.54753  0.91241  1.0000
  S   S370      1.0  0.63027  0.49981  0.87614  1.0000
  H   H2867     1.0  0.92074  0.51284  0.82928  1.0000
  S   S371      1.0  0.91163  0.80191  0.78010  1.0000
  H   H2868     1.0  0.85591  0.82245  0.84360  1.0000
  H   H2869     1.0  0.91155  0.59706  0.87611  1.0000
  S   S372      1.0  0.51991  0.88288  0.79322  1.0000
  Fe  Fe185     1.0  0.94496  0.79568  0.79109  1.0000
  S   S373      1.0  0.93740  0.75386  0.79622  1.0000
  Fe  Fe186     1.0  0.92882  0.83835  0.80287  1.0000
  S   S374      1.0  0.91390  0.85702  0.83088  1.0000
  H   H2870     1.0  0.77396  0.78576  0.88146  1.0000
  S   S375      1.0  0.95358  0.86326  0.77290  1.0000
  C   C1614     1.0  0.54908  0.91714  0.86666  1.0000
  C   C1615     1.0  0.56142  0.93134  0.84641  1.0000
  C   C1616     1.0  0.55222  0.92072  0.82392  1.0000
  C   C1617     1.0  0.53050  0.89597  0.82158  1.0000
  C   C1618     1.0  0.51802  0.88188  0.84181  1.0000
  C   C1619     1.0  0.52734  0.89243  0.86430  1.0000
  H   H2871     1.0  0.57790  0.95052  0.84800  1.0000
  H   H2872     1.0  0.56178  0.93178  0.80828  1.0000
  H   H2873     1.0  0.50147  0.86272  0.84013  1.0000
  H   H2874     1.0  0.51771  0.88147  0.87996  1.0000
  H   H2875     1.0  0.52986  0.63585  0.87099  1.0000
  H   H2876     1.0  0.48518  0.91745  0.77925  1.0000
  C   C1620     1.0  0.68222  0.97122  0.97179  1.0000
  C   C1621     1.0  0.93090  0.49424  0.86909  1.0000
  H   H2877     1.0  0.75653  0.52999  0.88160  1.0000
  C   C1622     1.0  0.48314  0.75076  0.78979  1.0000
  H   H2878     1.0  0.71911  0.76927  0.92276  1.0000
  C   C1623     1.0  0.52764  0.80331  0.82896  1.0000
  C   C1624     1.0  0.49929  0.73962  0.78864  1.0000
  H   H2879     1.0  0.64848  0.97705  0.97010  1.0000
  H   H2880     1.0  0.92625  0.70163  0.78727  1.0000
  C   C1625     1.0  0.65314  0.96196  0.97541  1.0000
  H   H2881     1.0  0.51868  0.75078  0.78153  1.0000
  C   C1626     1.0  0.56809  0.59699  0.84418  1.0000
  C   C1627     1.0  0.57934  0.59841  0.86655  1.0000
  C   C1628     1.0  0.59117  0.58342  0.87200  1.0000
  C   C1629     1.0  0.59226  0.56684  0.85504  1.0000
  C   C1630     1.0  0.58113  0.56554  0.83263  1.0000
  C   C1631     1.0  0.56896  0.58023  0.82730  1.0000
  H   H2882     1.0  0.57889  0.61121  0.87985  1.0000
  H   H2883     1.0  0.59966  0.58489  0.88926  1.0000
  H   H2884     1.0  0.58190  0.55300  0.81923  1.0000
  H   H2885     1.0  0.56054  0.57881  0.81000  1.0000
  H   H2886     1.0  0.90425  0.62721  0.78710  1.0000
  C   C1632     1.0  0.75606  0.79725  0.90743  1.0000
  S   S376      1.0  0.83453  0.93751  0.96963  1.0000
  H   H2887     1.0  0.91681  0.68409  0.87162  1.0000
  H   H2888     1.0  0.66251  0.48086  0.83077  1.0000
  C   C1633     1.0  0.70965  0.95296  0.89980  1.0000
  C   C1634     1.0  0.52903  0.53894  0.89034  1.0000
  H   H2889     1.0  0.48374  0.90809  0.82108  1.0000
  H   H2890     1.0  0.54347  0.51116  0.84094  1.0000
  H   H2891     1.0  0.69931  0.93293  0.90524  1.0000
  C   C1635     1.0  0.86327  0.89540  0.84668  1.0000
  C   C1636     1.0  0.86066  0.88238  0.82511  1.0000
  C   C1637     1.0  0.87643  0.87140  0.81962  1.0000
  C   C1638     1.0  0.89492  0.87268  0.83584  1.0000
  C   C1639     1.0  0.89762  0.88577  0.85743  1.0000
  C   C1640     1.0  0.88224  0.89728  0.86269  1.0000
  H   H2892     1.0  0.84619  0.88068  0.81247  1.0000
  H   H2893     1.0  0.87379  0.86136  0.80301  1.0000
  H   H2894     1.0  0.91166  0.88689  0.87026  1.0000
  H   H2895     1.0  0.88477  0.90721  0.87933  1.0000
  C   C1641     1.0  0.90224  0.54367  0.86257  1.0000
  C   C1642     1.0  0.92849  0.55955  0.85728  1.0000
  C   C1643     1.0  0.93620  0.56726  0.83397  1.0000
  C   C1644     1.0  0.91760  0.56000  0.81608  1.0000
  C   C1645     1.0  0.89129  0.54392  0.82131  1.0000
  C   C1646     1.0  0.88361  0.53556  0.84459  1.0000
  H   H2896     1.0  0.94291  0.56545  0.87117  1.0000
  H   H2897     1.0  0.95654  0.57847  0.82989  1.0000
  H   H2898     1.0  0.87686  0.53818  0.80746  1.0000
  H   H2899     1.0  0.86326  0.52344  0.84873  1.0000
  H   H2900     1.0  0.47546  0.59099  0.87100  1.0000
  C   C1647     1.0  0.94631  0.52649  0.75355  1.0000
  H   H2901     1.0  0.55997  0.49496  0.82979  1.0000
  C   C1648     1.0  0.51806  0.63312  0.88702  1.0000
  C   C1649     1.0  0.52310  0.82265  0.81416  1.0000
  C   C1650     1.0  0.77070  0.85939  0.85660  1.0000
  H   H2902     1.0  0.52319  0.80191  0.88983  1.0000
  H   H2903     1.0  0.51916  0.84038  0.87452  1.0000
  H   H2904     1.0  0.64916  0.96550  0.86236  1.0000
  H   H2905     1.0  0.75027  0.49506  0.99223  1.0000
  C   C1651     1.0  0.96763  0.86732  0.87318  1.0000
  C   C1652     1.0  0.92000  0.64199  0.83401  1.0000
  C   C1653     1.0  0.63558  0.50029  0.81180  1.0000
  H   H2906     1.0  0.94956  0.96258  0.89598  1.0000
  C   C1654     1.0  0.54420  0.49294  0.84167  1.0000
  C   C1655     1.0  0.82522  0.82181  0.88223  1.0000
  H   H2907     1.0  0.83343  0.81593  0.89716  1.0000
  C   C1656     1.0  0.48112  0.92466  0.81616  1.0000
  H   H2908     1.0  0.61948  0.50466  0.81070  1.0000
  H   H2909     1.0  0.90623  0.59984  0.83242  1.0000
  C   C1657     1.0  0.79492  0.83676  0.87087  1.0000
  C   C1658     1.0  0.50698  0.60570  0.89669  1.0000
  C   C1659     1.0  0.48935  0.58520  0.87811  1.0000
  H   H2910     1.0  0.48907  0.55275  0.83963  1.0000
  H   H2911     1.0  0.96539  0.72745  0.84736  1.0000
  C   C1660     1.0  0.81184  0.84178  0.91268  1.0000
  C   C1661     1.0  0.55487  0.49280  0.97661  1.0000
  H   H2912     1.0  0.54311  0.84380  0.91160  1.0000
  H   H2913     1.0  0.81472  0.83111  0.92748  1.0000
  H   H2914     1.0  0.76337  0.87251  0.86200  1.0000
  H   H2915     1.0  0.49075  0.96408  0.88064  1.0000
  H   H2916     1.0  0.89237  0.95955  0.85041  1.0000
  H   H2917     1.0  0.67594  0.95786  0.90322  1.0000
  H   H2918     1.0  0.52760  0.84028  0.82425  1.0000
  S   S377      1.0  0.59732  0.50683  0.91948  1.0000
  S   S378      1.0  0.92705  0.57111  0.78722  1.0000
  H   H2919     1.0  0.48843  0.90853  0.86067  1.0000
  C   C1662     1.0  0.60406  0.97472  0.99200  1.0000
  C   C1663     1.0  0.52157  0.73317  0.85942  1.0000
  H   H2920     1.0  0.83207  0.54253  0.98611  1.0000
  H   H2921     1.0  0.95326  0.68034  0.78720  1.0000
  C   C1664     1.0  0.84354  0.80347  0.85209  1.0000
  H   H2922     1.0  0.53507  0.81374  0.78064  1.0000
  C   C1665     1.0  0.48852  0.79461  0.85205  1.0000
  C   C1666     1.0  0.69888  0.96894  0.81013  1.0000
  C   C1667     1.0  0.96788  0.92575  0.81611  1.0000
  S   S379      1.0  0.95964  0.82952  0.81647  1.0000
  H   H2923     1.0  0.68951  0.97643  0.84540  1.0000
  H   H2924     1.0  0.52360  0.60296  0.90142  1.0000
  H   H2925     1.0  0.55752  0.87364  0.89535  1.0000
  H   H2926     1.0  0.51789  0.52040  0.90002  1.0000
  C   C1668     1.0  0.94959  0.71989  0.86069  1.0000
  H   H2927     1.0  0.55047  0.81198  0.87146  1.0000
  H   H2928     1.0  0.91515  0.60339  0.75268  1.0000
  H   H2929     1.0  0.80085  0.50424  0.94565  1.0000
  H   H2930     1.0  0.49949  0.53107  0.86489  1.0000
  H   H2931     1.0  0.49627  0.60480  0.91296  1.0000
  C   C1669     1.0  0.88436  0.59574  0.90144  1.0000
  H   H2932     1.0  0.87091  0.60334  0.90437  1.0000
  H   H2933     1.0  0.64768  0.95666  0.99416  1.0000
  H   H2934     1.0  0.81885  0.97640  0.97311  1.0000
  C   C1670     1.0  0.80714  0.50801  0.96449  1.0000
  C   C1671     1.0  0.65255  0.97753  0.81507  1.0000
  H   H2935     1.0  0.80659  0.78193  0.86849  1.0000
  H   H2936     1.0  0.94060  0.49934  0.82194  1.0000
  H   H2937     1.0  0.79770  0.87215  0.88540  1.0000
  H   H2938     1.0  0.53902  0.76596  0.83648  1.0000
  H   H2939     1.0  0.89977  0.64193  0.87677  1.0000
  H   H2940     1.0  0.56071  0.84081  0.79661  1.0000
  H   H2941     1.0  0.83930  0.54545  0.93212  1.0000
  H   H2942     1.0  0.54846  0.85013  0.85765  1.0000
  N   N90       1.0  0.80288  0.82510  0.89070  1.0000
  C   C1672     1.0  0.74422  0.52561  0.95849  1.0000
  H   H2943     1.0  0.89195  0.59306  0.79129  1.0000
  C   C1673     1.0  0.53980  0.83083  0.79188  1.0000
  H   H2944     1.0  0.57684  0.53287  0.96541  1.0000
  H   H2945     1.0  0.76033  0.81047  0.92266  1.0000
  H   H2946     1.0  0.54896  0.81155  0.83120  1.0000
  H   H2947     1.0  0.59976  0.96784  0.97395  1.0000
  H   H2948     1.0  0.75423  0.84134  0.84932  1.0000
  H   H2949     1.0  0.52275  0.56509  0.86897  1.0000
  H   H2950     1.0  0.83768  0.87773  0.89365  1.0000
  H   H2951     1.0  0.61936  0.94759  0.84729  1.0000
  H   H2952     1.0  0.53078  0.64735  0.90053  1.0000
  H   H2953     1.0  0.47534  0.91150  0.88779  1.0000
  C   C1674     1.0  0.75724  0.50913  0.95665  1.0000
  H   H2954     1.0  0.84140  0.84060  0.87573  1.0000
  H   H2955     1.0  0.53595  0.84432  0.78141  1.0000
  C   C1675     1.0  0.78260  0.85344  0.87798  1.0000
  H   H2956     1.0  0.95825  0.72495  0.87868  1.0000
  C   C1676     1.0  0.91220  0.50036  0.78452  1.0000
  H   H2957     1.0  0.74567  0.76427  0.93064  1.0000
  H   H2958     1.0  0.78548  0.86918  0.84257  1.0000
  C   C1677     1.0  0.73621  0.96441  0.89390  1.0000
  C   C1678     1.0  0.68047  0.96102  0.83171  1.0000
  C   C1679     1.0  0.94086  0.51152  0.77674  1.0000
  C   C1680     1.0  0.56971  0.52175  0.98211  1.0000
  H   H2959     1.0  0.58675  0.52670  0.99360  1.0000
  H   H2960     1.0  0.49352  0.48449  0.84470  1.0000
  C   C1681     1.0  0.69626  0.96707  0.89861  1.0000
  C   C1682     1.0  0.63867  0.94914  0.84978  1.0000
  C   C1683     1.0  0.64042  0.93212  0.81002  1.0000
  H   H2961     1.0  0.77120  0.97839  0.98658  1.0000
  H   H2962     1.0  0.93302  0.61943  0.81345  1.0000
  H   H2963     1.0  0.54911  0.49004  0.85996  1.0000
  C   C1684     1.0  0.61082  0.92079  0.80591  1.0000
  C   C1685     1.0  0.63465  0.92454  0.86295  1.0000
  C   C1686     1.0  0.61747  0.91910  0.88463  1.0000
  H   H2964     1.0  0.86271  0.49127  0.78444  1.0000
  H   H2965     1.0  0.89992  0.49233  0.76855  1.0000
  H   H2966     1.0  0.50007  0.94280  0.81672  1.0000
  H   H2967     1.0  0.68057  0.94400  0.83957  1.0000
  S   S380      1.0  0.83109  0.48463  0.92275  1.0000
  H   H2968     1.0  0.87528  0.48735  0.82417  1.0000
  H   H2969     1.0  0.95024  0.85634  0.88447  1.0000
  H   H2970     1.0  0.64375  0.91626  0.81608  1.0000
  H   H2971     1.0  0.64974  0.93758  0.79232  1.0000
  H   H2972     1.0  0.88412  0.59835  0.86382  1.0000
  H   H2973     1.0  0.49333  0.97069  0.84991  1.0000
  C   C1687     1.0  0.84652  0.54933  0.95065  1.0000
  H   H2974     1.0  0.49934  0.76032  0.87460  1.0000
  C   C1688     1.0  0.53054  0.76160  0.85450  1.0000
  H   H2975     1.0  0.85941  0.54103  0.95354  1.0000
  C   C1689     1.0  0.96206  0.70074  0.79110  1.0000
  H   H2976     1.0  0.59973  0.91296  0.82251  1.0000
  H   H2977     1.0  0.62516  0.90710  0.85158  1.0000
  H   H2978     1.0  0.65348  0.92703  0.86915  1.0000
  H   H2979     1.0  0.61589  0.90224  0.89441  1.0000
  H   H2980     1.0  0.62580  0.93603  0.89671  1.0000
  H   H2981     1.0  0.59771  0.91457  0.87915  1.0000
  H   H2982     1.0  0.77285  0.51837  0.94332  1.0000
  C   C1690     1.0  0.93227  0.69061  0.85807  1.0000
  H   H2983     1.0  0.78125  0.82130  0.85861  1.0000
  C   C1691     1.0  0.47193  0.92099  0.79047  1.0000
  H   H2984     1.0  0.60337  0.88285  0.79419  1.0000
  H   H2985     1.0  0.64955  0.51314  0.82545  1.0000
  C   C1692     1.0  0.49200  0.95621  0.86310  1.0000
  H   H2986     1.0  0.87283  0.57427  0.90088  1.0000
  H   H2987     1.0  0.61541  0.93210  0.96294  1.0000
  H   H2988     1.0  0.79685  0.84616  0.91913  1.0000
  C   C1693     1.0  0.92021  0.49422  0.82561  1.0000
  C   C1694     1.0  0.55360  0.85338  0.89510  1.0000
  H   H2989     1.0  0.77829  0.52581  0.98968  1.0000
  C   C1695     1.0  0.73698  0.76993  0.91604  1.0000
  H   H2990     1.0  0.95418  0.52519  0.79033  1.0000
  C   C1696     1.0  0.84163  0.88607  0.93087  1.0000
  C   C1697     1.0  0.81891  0.80197  0.86192  1.0000
  C   C1698     1.0  0.82852  0.97661  0.98936  1.0000
  H   H2991     1.0  0.80871  0.80544  0.84714  1.0000
  H   H2992     1.0  0.81223  0.54733  0.96482  1.0000
  H   H2993     1.0  0.50406  0.56082  0.91102  1.0000
  H   H2994     1.0  0.94569  0.49602  0.77394  1.0000
  H   H2995     1.0  0.67936  0.49482  0.97375  1.0000
  H   H2996     1.0  0.82065  0.50041  0.96669  1.0000
  C   C1699     1.0  0.71981  0.49948  0.89438  1.0000
  C   C1700     1.0  0.53132  0.81099  0.87242  1.0000
  H   H2997     1.0  0.95533  0.91456  0.91929  1.0000
  C   C1701     1.0  0.74616  0.51033  0.88810  1.0000
  H   H2998     1.0  0.82576  0.89077  0.93157  1.0000
  H   H2999     1.0  0.56768  0.48843  0.96561  1.0000
  H   H3000     1.0  0.78790  0.78933  0.91013  1.0000
  H   H3001     1.0  0.72504  0.96345  0.97936  1.0000
  H   H3002     1.0  0.85480  0.80065  0.86633  1.0000
  H   H3003     1.0  0.73594  0.52625  0.94103  1.0000
  C   C1702     1.0  0.60023  0.89872  0.78794  1.0000
  H   H3004     1.0  0.48093  0.52876  0.90367  1.0000
  Fe  Fe187     1.0  0.86110  0.49355  0.89517  1.0000
  H   H3005     1.0  0.52149  0.78650  0.81695  1.0000
  H   H3006     1.0  0.81192  0.84960  0.85964  1.0000
  C   C1703     1.0  0.76769  0.50644  0.98109  1.0000
  H   H3007     1.0  0.96746  0.94126  0.82663  1.0000
  H   H3008     1.0  0.60666  0.93575  0.79901  1.0000
  H   H3009     1.0  0.74257  0.48980  0.94983  1.0000
  H   H3010     1.0  0.77930  0.50460  0.88453  1.0000
  H   H3011     1.0  0.85815  0.57058  0.95331  1.0000
  C   C1704     1.0  0.53722  0.83935  0.87338  1.0000
  C   C1705     1.0  0.62333  0.50554  0.00091  1.0000
  H   H3012     1.0  0.83837  0.78821  0.83849  1.0000
  H   H3013     1.0  0.76732  0.84415  0.89150  1.0000
  H   H3014     1.0  0.72825  0.51737  0.97157  1.0000
  H   H3015     1.0  0.54120  0.53644  0.87691  1.0000
  H   H3016     1.0  0.72780  0.96264  0.82827  1.0000
  H   H3017     1.0  0.63870  0.92138  0.96671  1.0000
  C   C1706     1.0  0.83756  0.95920  0.99244  1.0000
  H   H3018     1.0  0.53798  0.72951  0.85678  1.0000
  C   C1707     1.0  0.75919  0.49597  0.88978  1.0000
  H   H3019     1.0  0.87699  0.60859  0.80661  1.0000
  Fe  Fe188     1.0  0.51514  0.62871  0.75849  1.0000
  H   H3020     1.0  0.89824  0.60144  0.91646  1.0000
  C   C1708     1.0  0.86022  0.49547  0.98595  1.0000
  H   H3021     1.0  0.90127  0.64185  0.83586  1.0000
  H   H3022     1.0  0.74594  0.80191  0.89341  1.0000
  C   C1709     1.0  0.51860  0.95711  0.86372  1.0000
  H   H3023     1.0  0.86025  0.90445  0.92857  1.0000
  C   C1710     1.0  0.51078  0.54644  0.87809  1.0000
  H   H3024     1.0  0.95129  0.50035  0.86448  1.0000
  C   C1711     1.0  0.82381  0.53771  0.96799  1.0000
  H   H3025     1.0  0.52107  0.94649  0.84888  1.0000
  H   H3026     1.0  0.96859  0.64983  0.84399  1.0000
  C   C1712     1.0  0.91459  0.61698  0.82081  1.0000
  H   H3027     1.0  0.75861  0.54573  0.96372  1.0000
  H   H3028     1.0  0.93168  0.65776  0.82128  1.0000
  H   H3029     1.0  0.52042  0.94828  0.88041  1.0000
  H   H3030     1.0  0.96329  0.90051  0.87261  1.0000
  H   H3031     1.0  0.55691  0.52766  0.99113  1.0000
  H   H3032     1.0  0.96349  0.90926  0.82800  1.0000
  H   H3033     1.0  0.92311  0.68707  0.84033  1.0000
  H   H3034     1.0  0.50254  0.81340  0.80829  1.0000
  H   H3035     1.0  0.69284  0.95215  0.79811  1.0000
  S   S381      1.0  0.48212  0.63426  0.76885  1.0000
  Fe  Fe189     1.0  0.59334  0.97044  0.89865  1.0000
  H   H3036     1.0  0.49163  0.81422  0.84845  1.0000
  N   N91       1.0  0.90300  0.48100  0.80448  1.0000
  Fe  Fe190     1.0  0.96885  0.60222  0.78558  1.0000
  Fe  Fe191     1.0  0.47910  0.84925  0.78957  1.0000
  C   C1713     1.0  0.78087  0.79863  0.89722  1.0000
  C   C1714     1.0  0.94833  0.67669  0.86113  1.0000
  H   H3037     1.0  0.49219  0.75371  0.84394  1.0000
  C   C1715     1.0  0.91450  0.63563  0.87754  1.0000
  H   H3038     1.0  0.49001  0.77016  0.78333  1.0000
  H   H3039     1.0  0.57249  0.85378  0.89469  1.0000
  C   C1716     1.0  0.63615  0.93771  0.96074  1.0000
  N   N92       1.0  0.51389  0.79454  0.85254  1.0000
  H   H3040     1.0  0.73141  0.75573  0.90135  1.0000
  H   H3041     1.0  0.96491  0.68592  0.84846  1.0000
  H   H3042     1.0  0.84235  0.87719  0.94790  1.0000
  N   N93       1.0  0.78427  0.49386  0.98077  1.0000
  N   N94       1.0  0.93376  0.64764  0.85768  1.0000
  H   H3043     1.0  0.86387  0.50037  0.96743  1.0000
  H   H3044     1.0  0.54612  0.77332  0.86739  1.0000
  N   N95       1.0  0.65307  0.95495  0.82663  1.0000
  H   H3045     1.0  0.68487  0.95497  0.97781  1.0000
  C   C1717     1.0  0.49230  0.54840  0.89603  1.0000
  C   C1718     1.0  0.50754  0.76693  0.85663  1.0000
  H   H3046     1.0  0.93790  0.72950  0.85774  1.0000
  H   H3047     1.0  0.64549  0.50450  0.79441  1.0000
  C   C1719     1.0  0.89580  0.61124  0.80019  1.0000
  H   H3048     1.0  0.64109  0.94133  0.94168  1.0000
  C   C1720     1.0  0.49074  0.71433  0.79687  1.0000
  H   H3049     1.0  0.50233  0.58749  0.86314  1.0000
  H   H3050     1.0  0.60977  0.90573  0.77052  1.0000
  H   H3051     1.0  0.50569  0.72040  0.84712  1.0000
  H   H3052     1.0  0.92918  0.51160  0.87291  1.0000
  C   C1721     1.0  0.95794  0.73973  0.79536  1.0000
  H   H3053     1.0  0.93079  0.94203  0.92024  1.0000
  C   C1722     1.0  0.89891  0.60568  0.87813  1.0000
  H   H3054     1.0  0.47201  0.93858  0.78391  1.0000
  C   C1723     1.0  0.47158  0.78464  0.87462  1.0000
  H   H3055     1.0  0.92433  0.64281  0.89494  1.0000
  H   H3056     1.0  0.92570  0.48227  0.88536  1.0000
  H   H3057     1.0  0.87522  0.53500  0.99728  1.0000
  H   H3058     1.0  0.94197  0.54249  0.75527  1.0000
  H   H3059     1.0  0.96155  0.86239  0.85448  1.0000
  C   C1724     1.0  0.72674  0.97805  0.81813  1.0000
  S   S382      1.0  0.64041  0.48777  0.93048  1.0000
  H   H3060     1.0  0.68615  0.97283  0.95243  1.0000
  N   N96       1.0  0.47446  0.55748  0.88649  1.0000
  H   H3061     1.0  0.94506  0.61832  0.85276  1.0000
  S   S383      1.0  0.97107  0.81951  0.76152  1.0000
  H   H3062     1.0  0.48265  0.79530  0.89056  1.0000
  C   C1725     1.0  0.61280  0.47962  0.99427  1.0000
  Fe  Fe192     1.0  0.47298  0.60272  0.79472  1.0000
  H   H3063     1.0  0.95706  0.68192  0.87910  1.0000
  C   C1726     1.0  0.95370  0.63897  0.85775  1.0000
  H   H3064     1.0  0.96362  0.93094  0.89206  1.0000
  H   H3065     1.0  0.47642  0.78250  0.83705  1.0000
  H   H3066     1.0  0.63238  0.97423  0.81484  1.0000
  H   H3067     1.0  0.95406  0.62961  0.89539  1.0000
  C   C1727     1.0  0.97098  0.93199  0.91027  1.0000
  H   H3068     1.0  0.53754  0.48882  0.96606  1.0000
  H   H3069     1.0  0.75632  0.93209  0.99706  1.0000
  H   H3070     1.0  0.47801  0.68350  0.75219  1.0000
  S   S384      1.0  0.82200  0.97888  0.92207  1.0000
  H   H3071     1.0  0.95075  0.97646  0.92460  1.0000
  C   C1728     1.0  0.96799  0.64190  0.88157  1.0000
  H   H3072     1.0  0.65829  0.97927  0.79614  1.0000
