data_image0
_chemical_formula_structural       FeSCFeS2FeSFeS3FeSHFeS2FeSFeS4H2CH2SH4C3H3FeH2SHC6H2NC6H4C6H5C6H3C2HC5H3NC2HCH2C2HSHCSH2CH2C3HCHNC4HC4HCH16CH10CH3CHC3H2CH5C2H6C2H2CHCH4C4H2C2H3FeHCH6CH2C2H3CHCH2CHCHNCHCH8NH3C2HCH5NCH4CH4CH3C2H2CH2CH3CH7CH2NH2FeC2H9C2HCSHCH3FeH7C2HC4HCHC2HFeSHFeS2FeSFeS3FeSHFeS2FeSFeS3CH3S2H2CH2CHCH3CH3CHCHC2H4C6H2CHC6H6C4H3CH2C4H4SC2H2CH3CH3C3H3CH4CH4C2H2CHCH4CH8CH2CH2CHCHCH8CHCH2C2H6FeH4C2H3NC4HC3H6CH13CNC3H2C3H5SH3CHC2H6CH2CH6CHCH2CNCH3C3HCHC3H2CNHCH2CH5CSNH2CHCHC2H2CH4C2HCH2CNHCH3C2SFeS2FeS4C3H2C2H2C2HNC5H11CH4SHC2H2C2H2NHC2H4C2H3C2H4CFeH2C2H2CH4CHCHCH2CHCHC3H3CH5CH2SCH3FeHCH4C2HCHNS2CSHCSHFeHSH2C3FeH2CHFeC2FeS2CSC3H5C2HCH4FeSFeCH3SHC2H2FeHCH2CH4CH6CH3CSCHCH3CHC3HCH2SH2CHC3HCHSCHCHCHCH5CHNSH5C3H5CHSCHCH5CHC2H3CH2CHCHCH2NCH2CH2CH6CHNHC2H3C2S2H4CH2C2HCH5CH7CHNHFeCHCHCHCSH5FeS2FeS2FeSFeS3H2SFeS2FeS2FeSCFeHFeS3HFeS2H2CS2C6H10SHC6H4C6H4C6H4C2HCH3CH6CHCHC2H9CHC2HCH3CH4SHSHCH5CHCHCH2C2H4C2H4CHCH3SHCFeHSH3NC7H15CHCH4C2H2C3NC12H29SH4C3HNCH2C2H5SH3CHCHCH2C2H4NC2HCH3CH2CH5CHC2HCHCH4CHCHCHC2SCH4CHFeCH2CNH2CHNC3H2FeCHFeH2CH2CHC2FeNHCHC2H3CSH2SH3CH4FeSCFeSHFeSHS2CFeHSFeS2FeCFeHS3HCHCH4C3H3C5H5C6H4C6H4C2H6C2SH2CHCH4C2H20CNHCHC2H2C3HNCH3SH8CH4SH5SCH2CHC2H4CHCH5C2H2CH4CH4SC2H2C2H6C3HC2H2CH3C2HCH5NH3NC12H5C4SCSHCHNH2C2H3CH4C2H3CH8CH3CHFeCHCFeH3C2H2CSHFeSFe2SCS2CFeHSFeS2H2FeHS3HCHC2HC2H4CHC5H4C7H4C6H6CH2SC2HCH4CH2NHC6HC5H3CH5CH4CH4CHCH3NFeC4SC2HC2NHCH3CH5C3H2CH2CH2CH4SHCH3CSCH4CH6NH5CH3CH4CFeH6C2HCH4CH4CHNH4CHCH3CH4CH2CH4CH2CH4CH4FeS2FeS2FeSFeS3FeS2FeS2FeSFeS3FeS2FeS2HFeSCSFeS2FeS2FeSFeS3HC6H4C3HC2HCH2C2HC3H4C6H4C6H4C6H4C6H9CH6CH4CH5CH12CH8CH2NC2HC3H2CH11CH2CH2CH5CHCNC12H31C3H3CH6CHCHC3H3C2H3CHCH6C2HCH2CH2NC3H3CHCHCNH3CH2C2HC3HCH2CH2C4H4CHSH3CH2NH4NH7C3H2CH2C2H6C2H6CH4C2HCHCH8CH3C2H3NH3CNFeS2FeS2FeSFeS3FeS2FeS2FeSFeS3FeS2FeSH2FeS3FeS2FeS2FeSFeS3HC6H4C2H2C2HNH2C2H8C6H4C6HCH2C6H4C6H3CH6CH14CHNHCH4CH2CH2CH5C4H2CH3CHNC11H25CH6C3HCHNCH2CH2C3H2CHC2H18C2H2C3HC2HCH2CH2CHCHC2H5C3HC2HSH4C2H5CH2C2H3CHCH3CH6CHNH2C3H2CHCH5C3H9FeH4C3HCHCH2CH2CSFeS2FeCH2S2FeS2FeS2FeSFeS3FeS2FeS2FeCFeCS2HS2H2C4H3C4H5SHC3HC2H3SC3HC2H3C6H4C6H4C6H11CH5CH2NC12H23CH2CHCH3CHC2H4NH2CH2NSC2HC2SH4CHFeCH6C2H4CHCH2CHNC6HCHCHCNH10CH2CHCH4CH2CH4C2FeCH2C4HC2HCH4CHFeH13C2HC3HCHC2HFeHC4H4CHCHCH4SH4CH3CHSHC2H2C3H3CH9CH2C2HCHCHNC2H2CH6NCH5SH5CH3CHCFeHC2H6CH5CHC2HSH2C4H3CH4CH2CHFeH3CHCHSFeS2CHFeCS2FeS2FeS2FeSFeS3FeS2FeS2FeNFeHS5CHC5H3C3H3C2H2C6H4C2H2C2H3C6H3C7H4C6H12CHC2HCHCH2CH3CHCSHCH4C2HCH2CHCSHSC2H3CH2SCH2CH2NC12H19CH11FeC3HCH2C2HCHC2HC2H4CH4CH3FeH7CHC2H5CHCH7CH4CN2C2HCHNH8FeNC5HC3HCH8CH14CH3FeCH8C2H5CH3C2HSH2CH2SH3CHCH7CSC4H2CHFeS2FeS2FeSFeS3HSFeS3H2C3HFeSH5SH2C4H4C6H4C6H4C6H4CH2CHCHC2H2CH7NC12H20CH12FeCHCH2CHC2HC2H3NH2CH4SH9SH3C2HC3H2CHC2H2CH4C2H2CHNC4NC3H3CHC2H8CH4CH2SH3SH7CHCHCH4CH2CH3C4H2FeS2FeS2FeSFeS3HSFeS3NH2SCHFeS2CH3CH2CHC3H3C6H4C6H4C6H4C2H2SHC2HCHCHCH9CHNHC6H2CHCH16C3H12C2H3CSCH7CHC2H4CH2C2H4CH3CH2CHCH7C2HCH3CH2C2H8C2H5C2H2CHCNH4CH3CHCH4C3H6FeC2HCH11FeS2FeS2FeSFeS3HSFeHCHFeSCFeSH2SFeSH2SH3CH8SC7H4C6H4C6H4C2HC3H4C2H8C3H3CH6CHNH2FeH3CH3CH2NC4HC5SCH9CHCH7NH2CHNH4CHCNHCHC2H3CH4C2HFeH3CHCH4NC3H2C5HCHCH4C2H6SCH2CHCHC2SH3CH4CSHCH3C2H5C2HCH2C2HSCH6CH2C2H6CH4CHCFeS2FeS2FeSFeS3CH2CHSFeSCFeSCHSFeSHS2H3NH2C2H4C8H4C6H4C6H4C3H2CHCH3CH6C2H3CHSCH2C2H3C2H2CH3NH2C2H7CHCFeCH5C2HCH2CH2C3HCHC2HCH2NHNH9FeCH9NHCH11CH3SCFeCHCH2C4H2CHC2SH2C2NH4CH6CH2C3H3NH2CHCH2CHC2HCHCH2CHCH2C2H10SH3C2HCHC2HCH3CHCNC2HCH5C2HCH3C2H2C2H4SCSCHSCFeSHS2HFeS2FeS2FeHFeS3FeSCFeS2FeHFeS3HSFeSHFeSFeS3HC6H4C6H4C3HC2H5C2HC3H4C6H4C6H8NC11H25CH5CH2C2H3C2HCH3CFeCH2CH2CH4C3HC2HCSH3CH2CH2NHCH3C4HCH2CH4CH10CH2SC2HCH5CH2SH4C2FeNHCHC2H3SCH10C2HC2H5C3H4C2SH2C2HCH2CHSH2CFeHCH2CHCH2CN2CHCH6CHNC3H2CFeHCHCH5CH11CH6C2H7C2NH5SH2SHFeSHFeSHS2HFeS2FeS2FeHFeS3FeSHFeS2FeHFeS3HSFeSHFeSFeS3HC6H4C6H4C3H2CH5C2HC3HSH2C6H4C6H5NC11H16CH9CH3SC3H4CH4NC12H21CH6CH2C2HFeC2H2C2HNH2CSC3H3NH2CNC3H8NC2HC3HCHCH2CH2CH6CH10C2HC2HCH9CH4CH12C2SC2HFeH7C2H2CHCHCSH4CH4CHC3H2C3H5CSNH2CHCH2CHCHCFeH2FeS2FeS2FeHFeHS2FeS2FeS2FeSFeS5FeS2FeS2FeSFeS3C6H5C6H4C6H6NCHC3H2C6H4C4FeH2CHC4H10CH3C3HC2H3NC4HCH4CH2CH2C2HCH5C4HCH3CH6FeH3C2H4CHCHCH5CH2CHCH3C2H7C2HCH2CH2C2H2C2HCH2CH4C2H2CH2CH2CH3CH6NC10H27CSC2HCH4C2H2CHCHCH7NH4C4HC2H4CH4CHNCH6CSHCHSCH4CHCHCH5CHCHCHCHNCH4CHC3NCH3CH5CNCH6C2H3CH4CH9FeS2FeS2FeHFeHS2FeS2FeS2FeSFeS5FeS2FeS2FeSFeS3C6H5C6H4C2HCHCH6CH2C2H3C6H4CHC2HCH2C5H6CH11NC4HC2HCHFeH3CH5CH5CHCH2C3H4NC12H22CHCH3CHC4HCH4C2SC2H4CNH4C2H2CHC3HCH4C2H2FeH4CH2CH2FeH2C2H2CH5C2H5NCH2C3SHCH3CH4C3H2C4H3C2H2CH3CHNHCHC2HNHSCH11CH2CHCH6CHCH3C2HCHCH3CH2SH3C2HCHFeSHFeS2HSFeSCSCHFeS3FeS2HFeHSH2SC2H4NCH2C7H2C2HC6H2C6HCH5SH2CHFeHCHCH7CH2CH8C3H2C2H3CHC3HC2H5FeHCH3CH3CH6C2H3CHC2H7NCH2NCH8SCH4CH2CH10SCSHFeSH2SFeSCSFeSFeS3FeS2HCFeH4CSH3C3HC7H4C6HCH2C6H5CH3CHCH3C3SH3CHCH8NH4CH16C2H2CH3CH2CH4C3S2FeH3CNCH3C2H2C2HCH8CH2CH5CH2CH2CH4S2FeS2FeS2FeSFeS4FeSHFeS2FeSFeS3C6H4C6H4C6H4C6H4C6H6C4H3FeH2CHCH3CNHC2H3CHFeH3CSH2C3H3C4HCHC2NH8SH3CHNC4HC4HC2H7C3H9C3H8C2H5CH2NC5HC4HCH20CHC2H4C3HCH14CH4C2HC3H2CNC8HC3H16C2H6CHNHCHCNCH2CHCH4CHCH5CHCFeCH7CSCH2CHCH2FeCH8CH2CH5C2H3CSH3C3H5NHC2H5SH5CH6CHSH5C3S2FeS2FeS2FeSFeS4FeSCFeS2FeSFeS3C6H4C6H4C6H4C6H4C6H4CHC4H3FeHCH2CHC2H7NC12H27NC9H27CH2CH2CH3CNC8H3CH19C3H4C2H7SCH3C2HC2H3C2H2CHC2H4FeH2C2H2CH12CH4CH4C3HCH3CH4SH6CH3FeHCH3CH3CNH4C3HNC2H2CH2NH4CH2FeHCH2NH4CHCH6CHCHCHSCNHCH10SH2SH3FeS2H2FeHFeSH2FeS2H2FeSFeSHCFeS2FeS2FeSFeS3FeS2FeS2FeSFeS3H3CHC4H4C3H5C6H4C2H2C2H4C6H4C4H5C4H5CH2CNC8H15NC3HSH4CH4CH4CHCHCHCH2CHC3HCHC2HCH5CH2C2H3C2H3C2H5CH3CHCHCH6NCHC2H2NC4H2C2H4SHC2H3CHCH2CH5CHSCH3CHCHCH8CH3CH3CHCH5C2H3CH3CH3CH3SHCFeS2C2FeHFeSCHFeS2C2FeSFeSH2FeS2FeS2FeSFeS3FeS2FeS2FeSFeS3H3C4H3SHC4HCH3C6H4CHCHC2H4C6H4C4H4CHC3SH4NC4HCHC3H6CHCH2NHCH13CH2NC7H2C3H12CHCHCH11C2H2C2HC4H11CHCH6CH17C2H4C3H6C2H6NH6C4HSH3CHCHC2NHC2H2C2H4C2H7CSC2H5C2HNHC2HCH2NC2SC2HC3H4CHCHC2H3CH2CH4CHCHCH3SH2C2HSC4
_chemical_formula_sum              "Fe288 S576 C2592 H4608 N144"
_cell_length_a       77.1638
_cell_length_b       77.2676
_cell_length_c       51.1235
_cell_angle_alpha    90.5277
_cell_angle_beta     91.4045
_cell_angle_gamma    112.45

_space_group_name_H-M_alt    "P 1"
_space_group_IT_number       1

loop_
  _space_group_symop_operation_xyz
  'x, y, z'

loop_
  _atom_site_type_symbol
  _atom_site_label
  _atom_site_symmetry_multiplicity
  _atom_site_fract_x
  _atom_site_fract_y
  _atom_site_fract_z
  _atom_site_occupancy
  Fe  Fe1       1.0  0.28597  0.16854  0.08723  1.0000
  S   S1        1.0  0.27744  0.13765  0.09041  1.0000
  C   C1        1.0  0.13802  0.19423  0.01352  1.0000
  Fe  Fe2       1.0  0.24571  0.16639  0.09206  1.0000
  S   S2        1.0  0.23406  0.13473  0.09551  1.0000
  S   S3        1.0  0.23289  0.18844  0.08644  1.0000
  Fe  Fe3       1.0  0.25912  0.13971  0.12308  1.0000
  S   S4        1.0  0.26442  0.12548  0.15994  1.0000
  Fe  Fe4       1.0  0.25356  0.13521  0.06273  1.0000
  S   S5        1.0  0.24877  0.11448  0.02849  1.0000
  S   S6        1.0  0.26942  0.17116  0.12142  1.0000
  S   S7        1.0  0.26334  0.16609  0.05764  1.0000
  Fe  Fe5       1.0  0.28686  0.11808  0.33521  1.0000
  S   S8        1.0  0.26678  0.13267  0.33464  1.0000
  H   H1        1.0  0.19702  0.02835  0.23998  1.0000
  Fe  Fe6       1.0  0.25535  0.07939  0.34621  1.0000
  S   S9        1.0  0.23340  0.09184  0.34567  1.0000
  S   S10       1.0  0.25013  0.04857  0.35489  1.0000
  Fe  Fe7       1.0  0.24802  0.10787  0.31051  1.0000
  S   S11       1.0  0.23186  0.11203  0.27479  1.0000
  Fe  Fe8       1.0  0.25426  0.11547  0.36990  1.0000
  S   S12       1.0  0.24516  0.12960  0.40327  1.0000
  S   S13       1.0  0.26863  0.09388  0.30928  1.0000
  S   S14       1.0  0.27575  0.10246  0.37230  1.0000
  S   S15       1.0  0.16761  0.20712  0.13831  1.0000
  H   H2        1.0  0.19084  0.05377  0.31880  1.0000
  H   H3        1.0  0.25149  0.06851  0.25938  1.0000
  C   C2        1.0  0.14390  0.17948  0.07461  1.0000
  H   H4        1.0  0.13289  0.20195  0.07931  1.0000
  H   H5        1.0  0.01490  0.17533  0.26948  1.0000
  S   S16       1.0  0.09157  0.22275  0.38052  1.0000
  H   H6        1.0  0.28702  0.16650  0.44711  1.0000
  H   H7        1.0  0.30139  0.15602  0.13437  1.0000
  H   H8        1.0  0.27370  0.04294  0.26509  1.0000
  H   H9        1.0  0.30120  0.14605  0.20883  1.0000
  C   C3        1.0  0.10412  0.19323  0.17735  1.0000
  C   C4        1.0  0.30326  0.14110  0.00419  1.0000
  C   C5        1.0  0.19163  0.01750  0.44197  1.0000
  H   H10       1.0  0.28536  0.14475  0.41178  1.0000
  H   H11       1.0  0.24683  0.07141  0.45762  1.0000
  H   H12       1.0  0.23135  0.07348  0.01051  1.0000
  Fe  Fe9       1.0  0.07594  0.24226  0.38117  1.0000
  H   H13       1.0  0.27555  0.05605  0.43532  1.0000
  H   H14       1.0  0.21311  0.02100  0.29287  1.0000
  S   S17       1.0  0.04424  0.23392  0.38746  1.0000
  H   H15       1.0  0.05575  0.18792  0.42660  1.0000
  C   C6        1.0  0.28077  0.20175  0.00971  1.0000
  C   C7        1.0  0.00558  0.21598  0.38534  1.0000
  C   C8        1.0  0.02254  0.21690  0.37453  1.0000
  C   C9        1.0  0.02169  0.20414  0.35442  1.0000
  C   C10       1.0  0.00415  0.19085  0.34520  1.0000
  C   C11       1.0  0.25194  0.17089  0.19389  1.0000
  H   H16       1.0  0.03452  0.20454  0.34588  1.0000
  H   H17       1.0  0.00374  0.18113  0.32962  1.0000
  N   N1        1.0  0.30695  0.19212  0.99058  1.0000
  C   C12       1.0  0.21590  0.19401  0.10358  1.0000
  C   C13       1.0  0.21478  0.21156  0.09963  1.0000
  C   C14       1.0  0.20054  0.21611  0.11093  1.0000
  C   C15       1.0  0.18696  0.20293  0.12584  1.0000
  C   C16       1.0  0.18815  0.18543  0.12998  1.0000
  C   C17       1.0  0.20265  0.18103  0.11916  1.0000
  H   H18       1.0  0.22493  0.22167  0.08753  1.0000
  H   H19       1.0  0.27149  0.15449  0.27995  1.0000
  H   H20       1.0  0.17758  0.17503  0.14115  1.0000
  H   H21       1.0  0.20320  0.16740  0.12209  1.0000
  C   C18       1.0  0.25470  0.12146  0.19146  1.0000
  C   C19       1.0  0.23805  0.12371  0.19721  1.0000
  C   C20       1.0  0.23123  0.12078  0.22282  1.0000
  C   C21       1.0  0.24104  0.11574  0.24295  1.0000
  C   C22       1.0  0.25755  0.11323  0.23712  1.0000
  C   C23       1.0  0.26418  0.11586  0.21144  1.0000
  H   H22       1.0  0.23042  0.12766  0.18191  1.0000
  H   H23       1.0  0.21832  0.12252  0.22708  1.0000
  H   H24       1.0  0.26513  0.10912  0.25230  1.0000
  H   H25       1.0  0.27685  0.11368  0.20704  1.0000
  H   H26       1.0  0.20932  0.03796  0.34574  1.0000
  C   C24       1.0  0.21706  0.05934  0.27989  1.0000
  C   C25       1.0  0.25371  0.11291  0.44704  1.0000
  C   C26       1.0  0.24719  0.12625  0.43732  1.0000
  C   C27       1.0  0.24202  0.13731  0.45510  1.0000
  C   C28       1.0  0.16590  0.20856  0.05600  1.0000
  C   C29       1.0  0.31113  0.15252  0.22546  1.0000
  H   H27       1.0  0.25801  0.10453  0.43359  1.0000
  H   H28       1.0  0.23703  0.14772  0.44774  1.0000
  H   H29       1.0  0.28331  0.16191  0.20185  1.0000
  C   C30       1.0  0.24831  0.04386  0.28187  1.0000
  C   C31       1.0  0.07821  0.20051  0.45427  1.0000
  H   H30       1.0  0.20732  0.07001  0.01577  1.0000
  C   C32       1.0  0.23294  0.01055  0.36339  1.0000
  C   C33       1.0  0.23016  0.02693  0.35640  1.0000
  C   C34       1.0  0.21180  0.02556  0.35101  1.0000
  C   C35       1.0  0.19657  0.00807  0.35243  1.0000
  C   C36       1.0  0.20625  0.05822  0.40698  1.0000
  H   H31       1.0  0.24704  0.01135  0.36764  1.0000
  H   H32       1.0  0.25828  0.16598  0.26312  1.0000
  H   H33       1.0  0.99204  0.15305  0.41295  1.0000
  N   N2        1.0  0.29492  0.17497  0.23941  1.0000
  C   C37       1.0  0.19753  0.06083  0.27796  1.0000
  C   C38       1.0  0.01577  0.17285  0.43532  1.0000
  H   H34       1.0  0.13580  0.16704  0.02755  1.0000
  C   C39       1.0  0.27070  0.16828  0.27618  1.0000
  H   H35       1.0  0.17812  0.13716  0.05398  1.0000
  H   H36       1.0  0.01784  0.19347  0.24604  1.0000
  C   C40       1.0  0.26724  0.17603  0.30227  1.0000
  C   C41       1.0  0.21982  0.06126  0.23258  1.0000
  H   H37       1.0  0.24461  0.04856  0.30062  1.0000
  S   S18       1.0  0.12627  0.23544  0.44517  1.0000
  H   H38       1.0  0.18175  0.99427  0.25661  1.0000
  C   C42       1.0  0.29552  0.15783  0.44988  1.0000
  S   S19       1.0  0.12984  0.22739  0.12944  1.0000
  H   H39       1.0  0.27164  0.18674  0.01088  1.0000
  H   H40       1.0  0.24258  0.06241  0.20669  1.0000
  C   C43       1.0  0.26945  0.04857  0.28282  1.0000
  H   H41       1.0  0.05928  0.22468  0.43363  1.0000
  H   H42       1.0  0.17088  0.21238  0.07668  1.0000
  C   C44       1.0  0.19345  0.99759  0.27133  1.0000
  C   C45       1.0  0.21265  0.02943  0.43751  1.0000
  C   C46       1.0  0.30160  0.17328  0.00324  1.0000
  H   H43       1.0  0.27893  0.17786  0.31656  1.0000
  C   C47       1.0  0.05682  0.19044  0.44823  1.0000
  H   H44       1.0  0.25404  0.16604  0.31048  1.0000
  N   N3        1.0  0.14784  0.19555  0.22004  1.0000
  C   C48       1.0  0.15613  0.18080  0.22197  1.0000
  C   C49       1.0  0.14052  0.19781  0.24642  1.0000
  C   C50       1.0  0.13238  0.18949  0.19921  1.0000
  C   C51       1.0  0.16235  0.21419  0.21258  1.0000
  H   H45       1.0  0.00558  0.19318  0.27570  1.0000
  C   C52       1.0  0.16662  0.17827  0.19761  1.0000
  C   C53       1.0  0.12074  0.20197  0.19660  1.0000
  C   C54       1.0  0.12331  0.18095  0.25568  1.0000
  C   C55       1.0  0.11661  0.18557  0.28176  1.0000
  H   H46       1.0  0.24633  0.14537  0.99791  1.0000
  C   C56       1.0  0.17503  0.16353  0.20233  1.0000
  H   H47       1.0  0.14490  0.16688  0.22544  1.0000
  H   H48       1.0  0.16586  0.18357  0.23935  1.0000
  H   H49       1.0  0.15166  0.20056  0.26194  1.0000
  H   H50       1.0  0.13689  0.21038  0.24691  1.0000
  H   H51       1.0  0.12262  0.17476  0.20209  1.0000
  H   H52       1.0  0.13830  0.18940  0.17959  1.0000
  H   H53       1.0  0.16640  0.21379  0.19196  1.0000
  H   H54       1.0  0.01736  0.20072  0.44278  1.0000
  H   H55       1.0  0.15549  0.21506  0.05285  1.0000
  H   H56       1.0  0.30651  0.16505  0.32851  1.0000
  H   H57       1.0  0.15690  0.17356  0.18030  1.0000
  H   H58       1.0  0.17832  0.19146  0.19270  1.0000
  H   H59       1.0  0.12959  0.21592  0.18917  1.0000
  H   H60       1.0  0.11496  0.20404  0.21546  1.0000
  H   H61       1.0  0.11130  0.17718  0.24147  1.0000
  H   H62       1.0  0.12696  0.16851  0.25850  1.0000
  C   C57       1.0  0.98964  0.17207  0.24629  1.0000
  H   H63       1.0  0.11191  0.19742  0.27954  1.0000
  H   H64       1.0  0.10457  0.17322  0.28841  1.0000
  H   H65       1.0  0.98260  0.14834  0.27065  1.0000
  H   H66       1.0  0.08672  0.18283  0.42829  1.0000
  H   H67       1.0  0.14116  0.23605  0.03393  1.0000
  H   H68       1.0  0.18248  0.16199  0.18468  1.0000
  H   H69       1.0  0.18531  0.16782  0.21910  1.0000
  H   H70       1.0  0.16384  0.14973  0.20632  1.0000
  H   H71       1.0  0.10898  0.19076  0.15793  1.0000
  H   H72       1.0  0.18953  0.15695  0.03357  1.0000
  C   C58       1.0  0.13168  0.23677  0.99382  1.0000
  H   H73       1.0  0.11376  0.17192  0.99531  1.0000
  H   H74       1.0  0.27705  0.06721  0.40425  1.0000
  H   H75       1.0  0.18789  0.21198  0.23013  1.0000
  C   C59       1.0  0.98718  0.18997  0.35597  1.0000
  H   H76       1.0  0.22766  0.07379  0.28347  1.0000
  C   C60       1.0  0.20056  0.07370  0.39608  1.0000
  C   C61       1.0  0.20970  0.03005  0.25233  1.0000
  C   C62       1.0  0.31437  0.16927  0.46460  1.0000
  H   H77       1.0  0.18016  0.21285  0.01819  1.0000
  H   H78       1.0  0.21779  0.05753  0.39517  1.0000
  C   C63       1.0  0.27879  0.16705  0.21979  1.0000
  H   H79       1.0  0.27976  0.19167  0.19773  1.0000
  H   H80       1.0  0.09412  0.17976  0.18482  1.0000
  H   H81       1.0  0.17661  0.06449  0.30248  1.0000
  H   H82       1.0  0.31192  0.14515  0.15725  1.0000
  H   H83       1.0  0.10379  0.19508  0.45356  1.0000
  C   C64       1.0  0.00058  0.16833  0.41368  1.0000
  C   C65       1.0  0.12772  0.18648  0.07775  1.0000
  H   H84       1.0  0.30620  0.20310  0.02967  1.0000
  H   H85       1.0  0.19870  0.06097  0.44634  1.0000
  H   H86       1.0  0.12801  0.18941  0.29704  1.0000
  H   H87       1.0  0.14912  0.24237  0.27419  1.0000
  H   H88       1.0  0.21779  0.05187  0.29803  1.0000
  H   H89       1.0  0.27709  0.08005  0.43388  1.0000
  C   C66       1.0  0.11699  0.17880  0.10256  1.0000
  C   C67       1.0  0.02746  0.19427  0.43744  1.0000
  H   H90       1.0  0.30896  0.17477  0.02266  1.0000
  H   H91       1.0  0.19795  0.23890  0.19956  1.0000
  C   C68       1.0  0.08856  0.18749  0.44916  1.0000
  H   H92       1.0  0.15628  0.22508  0.21302  1.0000
  C   C69       1.0  0.18283  0.21866  0.03849  1.0000
  H   H93       1.0  0.28646  0.16751  0.00783  1.0000
  H   H94       1.0  0.02464  0.16488  0.43073  1.0000
  H   H95       1.0  0.20478  0.05884  0.22897  1.0000
  H   H96       1.0  0.11080  0.16325  0.10183  1.0000
  C   C70       1.0  0.29890  0.15141  0.42281  1.0000
  C   C71       1.0  0.14697  0.18130  0.02621  1.0000
  C   C72       1.0  0.30160  0.15967  0.24707  1.0000
  C   C73       1.0  0.25455  0.11038  0.47425  1.0000
  H   H97       1.0  0.18246  0.00724  0.34822  1.0000
  H   H98       1.0  0.24677  0.18132  0.18553  1.0000
  C   C74       1.0  0.30188  0.20473  0.00918  1.0000
  C   C75       1.0  0.21478  0.04715  0.47813  1.0000
  H   H99       1.0  0.12647  0.18365  0.12014  1.0000
  H   H100      1.0  0.21495  0.02980  0.41612  1.0000
  H   H101      1.0  0.26584  0.18969  0.29954  1.0000
  Fe  Fe10      1.0  0.10936  0.24225  0.35014  1.0000
  H   H102      1.0  0.29751  0.19490  0.46942  1.0000
  C   C76       1.0  0.27686  0.21228  0.03288  1.0000
  H   H103      1.0  0.15582  0.15156  0.03972  1.0000
  H   H104      1.0  0.08416  0.21274  0.44133  1.0000
  H   H105      1.0  0.19826  0.07264  0.26518  1.0000
  H   H106      1.0  0.08334  0.17509  0.46188  1.0000
  H   H107      1.0  0.19985  0.22964  0.10761  1.0000
  H   H108      1.0  0.20528  0.06002  0.18110  1.0000
  C   C77       1.0  0.24980  0.05901  0.42167  1.0000
  H   H109      1.0  0.31152  0.16418  0.26432  1.0000
  H   H110      1.0  0.19408  0.04478  0.40381  1.0000
  C   C78       1.0  0.16625  0.15851  0.05566  1.0000
  C   C79       1.0  0.18051  0.22179  0.23003  1.0000
  H   H111      1.0  0.21717  0.02279  0.24097  1.0000
  H   H112      1.0  0.14453  0.20655  0.46604  1.0000
  H   H113      1.0  0.26624  0.18811  0.22684  1.0000
  C   C80       1.0  0.20213  0.01861  0.27742  1.0000
  H   H114      1.0  0.28967  0.14718  0.25368  1.0000
  C   C81       1.0  0.22081  0.06570  0.18337  1.0000
  H   H115      1.0  0.30017  0.18553  0.27932  1.0000
  H   H116      1.0  0.09291  0.23899  0.28471  1.0000
  C   C82       1.0  0.24108  0.05706  0.44891  1.0000
  H   H117      1.0  0.22714  0.07662  0.23628  1.0000
  C   C83       1.0  0.27119  0.06602  0.42409  1.0000
  H   H118      1.0  0.22608  0.08115  0.18635  1.0000
  N   N4        1.0  0.21992  0.04891  0.44962  1.0000
  C   C84       1.0  0.00810  0.18422  0.26031  1.0000
  H   H119      1.0  0.28469  0.22761  0.03115  1.0000
  C   C85       1.0  0.21657  0.06404  0.00604  1.0000
  H   H120      1.0  0.19106  0.02255  0.28602  1.0000
  H   H121      1.0  0.18133  0.18596  0.07288  1.0000
  H   H122      1.0  0.19552  0.21684  0.04657  1.0000
  H   H123      1.0  0.18224  0.18490  0.03832  1.0000
  H   H124      1.0  0.18845  0.07442  0.40667  1.0000
  H   H125      1.0  0.26162  0.20940  0.03330  1.0000
  H   H126      1.0  0.15996  0.15325  0.07476  1.0000
  H   H127      1.0  0.20037  0.07867  0.31220  1.0000
  N   N5        1.0  0.15705  0.18752  0.05250  1.0000
  H   H128      1.0  0.24086  0.16128  0.20625  1.0000
  H   H129      1.0  0.19928  0.04185  0.47989  1.0000
  H   H130      1.0  0.22079  0.02133  0.44543  1.0000
  C   C86       1.0  0.21770  0.99309  0.36501  1.0000
  C   C87       1.0  0.14705  0.19331  0.46625  1.0000
  H   H131      1.0  0.21248  0.08751  0.39797  1.0000
  C   C88       1.0  0.98805  0.20266  0.37618  1.0000
  H   H132      1.0  0.15206  0.18218  0.09355  1.0000
  H   H133      1.0  0.26762  0.15443  0.22759  1.0000
  H   H134      1.0  0.03211  0.19922  0.41743  1.0000
  H   H135      1.0  0.10546  0.18397  0.10438  1.0000
  H   H136      1.0  0.24648  0.06945  0.41006  1.0000
  N   N6        1.0  0.04420  0.20041  0.45631  1.0000
  C   C89       1.0  0.12113  0.24012  0.28270  1.0000
  H   H137      1.0  0.21397  0.05004  0.01426  1.0000
  H   H138      1.0  0.27742  0.06393  0.28423  1.0000
  H   H139      1.0  0.18669  0.04788  0.26937  1.0000
  H   H140      1.0  0.24484  0.04539  0.41094  1.0000
  C   C90       1.0  0.17255  0.18012  0.05489  1.0000
  H   H141      1.0  0.11752  0.18138  0.06104  1.0000
  H   H142      1.0  0.18998  0.01186  0.46209  1.0000
  H   H143      1.0  0.29037  0.13661  0.01584  1.0000
  H   H144      1.0  0.18289  0.02598  0.43982  1.0000
  C   C91       1.0  0.26988  0.18091  0.21028  1.0000
  H   H145      1.0  0.24148  0.02840  0.27987  1.0000
  H   H146      1.0  0.09666  0.20292  0.17488  1.0000
  H   H147      1.0  0.06709  0.22666  0.46650  1.0000
  C   C92       1.0  0.31029  0.19113  0.22719  1.0000
  C   C93       1.0  0.21173  0.06172  0.43659  1.0000
  H   H148      1.0  0.99298  0.16394  0.23050  1.0000
  H   H149      1.0  0.22166  0.04132  0.20260  1.0000
  C   C94       1.0  0.22700  0.05667  0.20636  1.0000
  H   H150      1.0  0.22666  0.06274  0.16499  1.0000
  H   H151      1.0  0.25460  0.16281  0.17746  1.0000
  C   C95       1.0  0.28891  0.18200  0.26385  1.0000
  H   H152      1.0  0.19644  0.07078  0.37503  1.0000
  H   H153      1.0  0.05209  0.17628  0.45696  1.0000
  H   H154      1.0  0.19363  0.15905  0.06864  1.0000
  C   C96       1.0  0.18293  0.15263  0.05276  1.0000
  H   H155      1.0  0.28689  0.14527  0.46056  1.0000
  H   H156      1.0  0.27644  0.20714  0.99169  1.0000
  H   H157      1.0  0.13334  0.18125  0.46487  1.0000
  H   H158      1.0  0.15516  0.19294  0.44876  1.0000
  H   H159      1.0  0.28712  0.19542  0.26032  1.0000
  H   H160      1.0  0.17730  0.22418  0.25047  1.0000
  H   H161      1.0  0.30556  0.20287  0.22377  1.0000
  C   C97       1.0  0.12238  0.24012  0.47793  1.0000
  H   H162      1.0  0.13695  0.16400  0.07242  1.0000
  H   H163      1.0  0.24672  0.04739  0.24099  1.0000
  N   N7        1.0  0.22208  0.05057  0.25622  1.0000
  H   H164      1.0  0.00597  0.22573  0.40089  1.0000
  H   H165      1.0  0.27319  0.04215  0.30033  1.0000
  Fe  Fe11      1.0  0.16080  0.23334  0.13429  1.0000
  C   C98       1.0  0.24252  0.05325  0.25854  1.0000
  C   C99       1.0  0.05424  0.22133  0.45389  1.0000
  H   H166      1.0  0.24692  0.04855  0.46110  1.0000
  H   H167      1.0  0.00861  0.16765  0.45390  1.0000
  H   H168      1.0  0.28104  0.20768  0.05171  1.0000
  H   H169      1.0  0.30624  0.16491  0.16735  1.0000
  H   H170      1.0  0.31334  0.18705  0.20742  1.0000
  H   H171      1.0  0.18322  0.00576  0.40272  1.0000
  H   H172      1.0  0.22154  0.07663  0.43924  1.0000
  H   H173      1.0  0.08138  0.20570  0.47474  1.0000
  H   H174      1.0  0.00703  0.17241  0.39435  1.0000
  C   C100      1.0  0.25283  0.12073  0.99516  1.0000
  C   C101      1.0  0.19102  0.06463  0.30460  1.0000
  H   H175      1.0  0.30807  0.16346  0.41143  1.0000
  C   C102      1.0  0.04281  0.23344  0.46065  1.0000
  S   S20       1.0  0.12299  0.23396  0.31567  1.0000
  H   H176      1.0  0.30966  0.21977  0.00463  1.0000
  C   C103      1.0  0.19413  0.24051  0.22002  1.0000
  H   H177      1.0  0.26334  0.17715  0.47597  1.0000
  H   H178      1.0  0.12935  0.19835  0.02723  1.0000
  H   H179      1.0  0.30531  0.14083  0.42474  1.0000
  Fe  Fe12      1.0  0.11144  0.24267  0.41046  1.0000
  H   H180      1.0  0.30592  0.12556  0.24349  1.0000
  H   H181      1.0  0.17535  0.24230  0.02826  1.0000
  H   H182      1.0  0.26029  0.09727  0.98584  1.0000
  H   H183      1.0  0.98374  0.18152  0.23693  1.0000
  H   H184      1.0  0.14919  0.20724  0.00683  1.0000
  H   H185      1.0  0.15670  0.17978  0.01141  1.0000
  H   H186      1.0  0.03108  0.23094  0.44623  1.0000
  C   C104      1.0  0.18727  0.23967  0.03752  1.0000
  C   C105      1.0  0.31146  0.15875  0.15118  1.0000
  H   H187      1.0  0.30272  0.12911  0.99159  1.0000
  C   C106      1.0  0.13242  0.24045  0.02102  1.0000
  C   C107      1.0  0.18394  0.00082  0.42285  1.0000
  C   C108      1.0  0.30483  0.15777  0.98721  1.0000
  C   C109      1.0  0.10461  0.24104  0.27220  1.0000
  H   H188      1.0  0.99110  0.17583  0.41731  1.0000
  C   C110      1.0  0.25025  0.13636  0.98504  1.0000
  H   H189      1.0  0.14002  0.22965  0.98579  1.0000
  C   C111      1.0  0.12563  0.18477  0.98960  1.0000
  C   C112      1.0  0.13618  0.24278  0.26614  1.0000
  H   H190      1.0  0.03708  0.23046  0.48052  1.0000
  Fe  Fe13      1.0  0.28129  0.16587  0.59289  1.0000
  S   S21       1.0  0.27095  0.13475  0.59201  1.0000
  H   H191      1.0  0.28345  0.13405  0.72135  1.0000
  Fe  Fe14      1.0  0.24181  0.16605  0.59086  1.0000
  S   S22       1.0  0.22825  0.13433  0.58956  1.0000
  S   S23       1.0  0.23082  0.18959  0.58642  1.0000
  Fe  Fe15      1.0  0.24998  0.13581  0.62114  1.0000
  S   S24       1.0  0.24623  0.11522  0.65440  1.0000
  Fe  Fe16      1.0  0.25045  0.13566  0.56057  1.0000
  S   S25       1.0  0.24869  0.11611  0.52583  1.0000
  S   S26       1.0  0.26197  0.16726  0.62426  1.0000
  S   S27       1.0  0.26236  0.16699  0.55969  1.0000
  Fe  Fe17      1.0  0.29166  0.11742  0.83305  1.0000
  S   S28       1.0  0.27419  0.13448  0.83698  1.0000
  H   H192      1.0  0.30111  0.12778  0.54449  1.0000
  Fe  Fe18      1.0  0.25737  0.08033  0.84191  1.0000
  S   S29       1.0  0.23783  0.09572  0.84540  1.0000
  S   S30       1.0  0.25018  0.04855  0.84608  1.0000
  Fe  Fe19      1.0  0.25311  0.11252  0.81098  1.0000
  S   S31       1.0  0.24186  0.12518  0.77772  1.0000
  Fe  Fe20      1.0  0.26100  0.11636  0.87100  1.0000
  S   S32       1.0  0.25670  0.13227  0.90667  1.0000
  S   S33       1.0  0.27108  0.09588  0.80572  1.0000
  S   S34       1.0  0.28002  0.10050  0.86893  1.0000
  C   C113      1.0  0.25272  0.19046  0.74667  1.0000
  H   H193      1.0  0.27897  0.23046  0.64262  1.0000
  H   H194      1.0  0.03072  0.17953  0.48505  1.0000
  H   H195      1.0  0.30475  0.11659  0.76652  1.0000
  S   S35       1.0  0.16094  0.20441  0.63027  1.0000
  S   S36       1.0  0.12215  0.22347  0.62769  1.0000
  H   H196      1.0  0.19848  0.05980  0.51927  1.0000
  H   H197      1.0  0.22481  0.22100  0.68243  1.0000
  C   C114      1.0  0.24890  0.12110  0.49200  1.0000
  H   H198      1.0  0.05101  0.17641  0.82454  1.0000
  H   H199      1.0  0.26551  0.18736  0.75013  1.0000
  C   C115      1.0  0.19996  0.99312  0.86271  1.0000
  H   H200      1.0  0.21931  0.03660  0.48777  1.0000
  C   C116      1.0  0.13120  0.24119  0.52432  1.0000
  H   H201      1.0  0.28954  0.13382  0.67761  1.0000
  H   H202      1.0  0.08396  0.21630  0.80094  1.0000
  H   H203      1.0  0.13435  0.20623  0.57936  1.0000
  C   C117      1.0  0.21824  0.99367  0.86111  1.0000
  H   H204      1.0  0.22722  0.06807  0.89805  1.0000
  H   H205      1.0  0.06007  0.21722  0.50591  1.0000
  H   H206      1.0  0.30779  0.17344  0.94135  1.0000
  C   C118      1.0  0.00325  0.17422  0.77397  1.0000
  H   H207      1.0  0.20307  0.23395  0.70166  1.0000
  C   C119      1.0  0.24862  0.19046  0.71726  1.0000
  H   H208      1.0  0.17816  0.00040  0.91105  1.0000
  C   C120      1.0  0.01811  0.21295  0.88569  1.0000
  C   C121      1.0  0.99993  0.19890  0.88790  1.0000
  H   H209      1.0  0.27681  0.20809  0.65540  1.0000
  H   H210      1.0  0.02933  0.21334  0.89908  1.0000
  H   H211      1.0  0.99744  0.18856  0.90297  1.0000
  H   H212      1.0  0.23556  0.21039  0.71783  1.0000
  C   C122      1.0  0.21142  0.19341  0.59928  1.0000
  C   C123      1.0  0.19600  0.17888  0.60920  1.0000
  C   C124      1.0  0.18075  0.18258  0.61877  1.0000
  C   C125      1.0  0.18076  0.20080  0.61857  1.0000
  C   C126      1.0  0.19625  0.21535  0.60882  1.0000
  C   C127      1.0  0.21143  0.21162  0.59906  1.0000
  H   H213      1.0  0.19576  0.16478  0.60928  1.0000
  H   H214      1.0  0.16882  0.17123  0.62628  1.0000
  C   C128      1.0  0.21374  0.06294  0.52166  1.0000
  H   H215      1.0  0.22331  0.22295  0.59139  1.0000
  C   C129      1.0  0.24656  0.11886  0.68877  1.0000
  C   C130      1.0  0.24617  0.10435  0.70549  1.0000
  C   C131      1.0  0.24565  0.10637  0.73289  1.0000
  C   C132      1.0  0.24484  0.12271  0.74376  1.0000
  C   C133      1.0  0.24537  0.13724  0.72704  1.0000
  C   C134      1.0  0.24673  0.13554  0.69976  1.0000
  H   H216      1.0  0.24598  0.09136  0.69716  1.0000
  H   H217      1.0  0.24503  0.09499  0.74548  1.0000
  H   H218      1.0  0.24469  0.14984  0.73537  1.0000
  H   H219      1.0  0.24748  0.14691  0.68715  1.0000
  H   H220      1.0  0.24734  0.01084  0.85471  1.0000
  H   H221      1.0  0.19214  0.03792  0.93577  1.0000
  C   C135      1.0  0.25985  0.11287  0.95110  1.0000
  C   C136      1.0  0.25624  0.12789  0.94078  1.0000
  C   C137      1.0  0.25176  0.13979  0.95798  1.0000
  C   C138      1.0  0.04374  0.18100  0.87395  1.0000
  H   H222      1.0  0.29496  0.17592  0.52274  1.0000
  H   H223      1.0  0.26400  0.10404  0.93826  1.0000
  H   H224      1.0  0.24901  0.15150  0.95022  1.0000
  C   C139      1.0  0.20258  0.01571  0.93637  1.0000
  H   H225      1.0  0.24559  0.22351  0.64940  1.0000
  H   H226      1.0  0.12113  0.19487  0.55015  1.0000
  C   C140      1.0  0.19712  0.00998  0.85960  1.0000
  C   C141      1.0  0.21222  0.02705  0.85469  1.0000
  C   C142      1.0  0.23046  0.02752  0.85264  1.0000
  C   C143      1.0  0.23331  0.01070  0.85603  1.0000
  H   H227      1.0  0.03899  0.19508  0.76572  1.0000
  H   H228      1.0  0.18308  0.00981  0.86071  1.0000
  H   H229      1.0  0.20970  0.03979  0.85216  1.0000
  H   H230      1.0  0.29386  0.15250  0.97138  1.0000
  S   S37       1.0  0.31165  0.18554  0.59326  1.0000
  C   C144      1.0  0.29824  0.11400  0.69980  1.0000
  C   C145      1.0  0.30468  0.18619  0.93962  1.0000
  H   H231      1.0  0.19651  0.22945  0.60872  1.0000
  H   H232      1.0  0.23975  0.03497  0.93582  1.0000
  C   C146      1.0  0.05028  0.23125  0.78483  1.0000
  H   H233      1.0  0.30199  0.08517  0.72708  1.0000
  H   H234      1.0  0.22340  0.03843  0.79574  1.0000
  H   H235      1.0  0.31256  0.14805  0.58823  1.0000
  C   C147      1.0  0.29929  0.12643  0.67567  1.0000
  H   H236      1.0  0.10238  0.18580  0.58992  1.0000
  H   H237      1.0  0.05345  0.20260  0.54877  1.0000
  H   H238      1.0  0.17679  0.14375  0.53494  1.0000
  C   C148      1.0  0.25784  0.10913  0.97807  1.0000
  C   C149      1.0  0.20401  0.03532  0.92727  1.0000
  C   C150      1.0  0.13445  0.23846  0.49792  1.0000
  H   H239      1.0  0.28469  0.13398  0.76747  1.0000
  H   H240      1.0  0.24011  0.06647  0.96602  1.0000
  H   H241      1.0  0.06991  0.19686  0.83612  1.0000
  C   C151      1.0  0.27250  0.05407  0.91462  1.0000
  H   H242      1.0  0.22063  0.07721  0.48521  1.0000
  H   H243      1.0  0.26853  0.04564  0.89612  1.0000
  H   H244      1.0  0.29356  0.10954  0.51977  1.0000
  H   H245      1.0  0.25737  0.22224  0.67971  1.0000
  C   C152      1.0  0.14681  0.19212  0.51593  1.0000
  H   H246      1.0  0.30918  0.16197  0.81937  1.0000
  H   H247      1.0  0.25757  0.07172  0.90578  1.0000
  H   H248      1.0  0.21608  0.09652  0.89173  1.0000
  H   H249      1.0  0.30679  0.08877  0.78703  1.0000
  C   C153      1.0  0.07216  0.20574  0.78927  1.0000
  C   C154      1.0  0.18188  0.15928  0.53524  1.0000
  H   H250      1.0  0.14055  0.20287  0.51369  1.0000
  H   H251      1.0  0.28316  0.10481  0.70175  1.0000
  C   C155      1.0  0.11282  0.17953  0.58568  1.0000
  H   H252      1.0  0.19543  0.06284  0.89978  1.0000
  C   C156      1.0  0.19193  0.22168  0.69192  1.0000
  H   H253      1.0  0.25515  0.20436  0.75571  1.0000
  H   H254      1.0  0.30544  0.10449  0.69450  1.0000
  H   H255      1.0  0.21587  0.05147  0.53247  1.0000
  H   H256      1.0  0.21308  0.00465  0.80418  1.0000
  C   C157      1.0  0.30131  0.13753  0.50461  1.0000
  H   H257      1.0  0.28688  0.13693  0.50646  1.0000
  H   H258      1.0  0.22022  0.07609  0.53351  1.0000
  H   H259      1.0  0.03446  0.18254  0.53481  1.0000
  H   H260      1.0  0.30012  0.20461  0.50199  1.0000
  H   H261      1.0  0.19372  0.01237  0.80305  1.0000
  H   H262      1.0  0.03730  0.22326  0.77317  1.0000
  H   H263      1.0  0.28872  0.19631  0.91216  1.0000
  H   H264      1.0  0.22637  0.04299  0.97244  1.0000
  C   C158      1.0  0.21684  0.02803  0.77966  1.0000
  H   H265      1.0  0.21582  0.10166  0.92621  1.0000
  H   H266      1.0  0.20861  0.03366  0.76660  1.0000
  C   C159      1.0  0.26918  0.21572  0.64498  1.0000
  H   H267      1.0  0.22824  0.02622  0.76853  1.0000
  H   H268      1.0  0.20630  0.01588  0.95747  1.0000
  C   C160      1.0  0.29124  0.18333  0.91604  1.0000
  H   H269      1.0  0.28311  0.16205  0.49552  1.0000
  C   C161      1.0  0.05190  0.20192  0.50632  1.0000
  H   H270      1.0  0.18557  0.00024  0.75706  1.0000
  C   C162      1.0  0.00663  0.22587  0.84961  1.0000
  H   H271      1.0  0.03684  0.16614  0.86731  1.0000
  H   H272      1.0  0.17176  0.20423  0.49109  1.0000
  H   H273      1.0  0.17561  0.22943  0.51345  1.0000
  H   H274      1.0  0.30293  0.13236  0.48486  1.0000
  H   H275      1.0  0.30608  0.15182  0.71828  1.0000
  H   H276      1.0  0.27420  0.04514  0.93059  1.0000
  H   H277      1.0  0.23859  0.14319  0.49574  1.0000
  H   H278      1.0  0.18795  0.16441  0.51598  1.0000
  C   C163      1.0  0.22599  0.05545  0.96216  1.0000
  H   H279      1.0  0.30936  0.14726  0.76996  1.0000
  C   C164      1.0  0.29811  0.13906  0.72945  1.0000
  H   H280      1.0  0.29504  0.20431  0.96067  1.0000
  H   H281      1.0  0.30707  0.06969  0.76678  1.0000
  C   C165      1.0  0.98846  0.21179  0.85176  1.0000
  C   C166      1.0  0.09719  0.19537  0.77168  1.0000
  H   H282      1.0  0.30555  0.17516  0.75270  1.0000
  H   H283      1.0  0.10069  0.18307  0.76682  1.0000
  H   H284      1.0  0.15487  0.22128  0.55023  1.0000
  H   H285      1.0  0.15464  0.15948  0.52501  1.0000
  H   H286      1.0  0.03297  0.20540  0.53508  1.0000
  H   H287      1.0  0.13886  0.24049  0.72236  1.0000
  Fe  Fe21      1.0  0.15339  0.23031  0.62985  1.0000
  H   H288      1.0  0.19032  0.22495  0.67111  1.0000
  H   H289      1.0  0.07179  0.21208  0.76996  1.0000
  H   H290      1.0  0.03943  0.17526  0.78211  1.0000
  H   H291      1.0  0.24086  0.17952  0.75633  1.0000
  C   C167      1.0  0.04375  0.19412  0.85174  1.0000
  C   C168      1.0  0.20791  0.09223  0.90975  1.0000
  H   H292      1.0  0.03582  0.18334  0.89056  1.0000
  H   H293      1.0  0.28463  0.10360  0.74728  1.0000
  H   H294      1.0  0.26124  0.20092  0.70845  1.0000
  N   N8        1.0  0.22323  0.19238  0.68375  1.0000
  C   C169      1.0  0.23790  0.19489  0.66352  1.0000
  C   C170      1.0  0.20794  0.17311  0.68022  1.0000
  C   C171      1.0  0.21445  0.20652  0.67834  1.0000
  C   C172      1.0  0.23122  0.19544  0.71154  1.0000
  H   H295      1.0  0.11913  0.17747  0.60460  1.0000
  C   C173      1.0  0.19675  0.20428  0.69395  1.0000
  C   C174      1.0  0.21400  0.15625  0.68203  1.0000
  C   C175      1.0  0.19758  0.13784  0.67545  1.0000
  H   H296      1.0  0.26458  0.20929  0.62518  1.0000
  H   H297      1.0  0.23105  0.19005  0.64394  1.0000
  H   H298      1.0  0.24584  0.18583  0.66732  1.0000
  H   H299      1.0  0.19707  0.17069  0.69518  1.0000
  H   H300      1.0  0.20056  0.17203  0.66094  1.0000
  H   H301      1.0  0.21046  0.20610  0.65720  1.0000
  C   C176      1.0  0.29365  0.11461  0.65044  1.0000
  H   H302      1.0  0.22014  0.18755  0.72538  1.0000
  H   H303      1.0  0.24685  0.17658  0.70912  1.0000
  H   H304      1.0  0.98900  0.17043  0.78186  1.0000
  H   H305      1.0  0.19879  0.20189  0.71498  1.0000
  H   H306      1.0  0.18446  0.19222  0.68586  1.0000
  H   H307      1.0  0.22510  0.15736  0.66805  1.0000
  H   H308      1.0  0.21889  0.15514  0.70228  1.0000
  H   H309      1.0  0.20236  0.12602  0.67718  1.0000
  H   H310      1.0  0.18601  0.13555  0.68920  1.0000
  H   H311      1.0  0.19226  0.13787  0.65506  1.0000
  H   H312      1.0  0.19591  0.06838  0.93379  1.0000
  H   H313      1.0  0.19761  0.05289  0.97330  1.0000
  H   H314      1.0  0.06455  0.22910  0.82121  1.0000
  C   C177      1.0  0.18142  0.22828  0.53310  1.0000
  N   N9        1.0  0.15714  0.19473  0.54215  1.0000
  C   C178      1.0  0.17239  0.18699  0.54260  1.0000
  C   C179      1.0  0.16569  0.21517  0.55022  1.0000
  C   C180      1.0  0.14316  0.18465  0.56257  1.0000
  H   H315      1.0  0.28161  0.18015  0.96631  1.0000
  H   H316      1.0  0.13392  0.18107  0.97465  1.0000
  C   C181      1.0  0.16562  0.16536  0.54067  1.0000
  C   C182      1.0  0.12798  0.19266  0.56845  1.0000
  C   C183      1.0  0.29234  0.19198  0.48959  1.0000
  H   H317      1.0  0.30357  0.10765  0.64664  1.0000
  H   H318      1.0  0.28069  0.16203  0.74662  1.0000
  H   H319      1.0  0.10542  0.16575  0.57567  1.0000
  H   H320      1.0  0.18098  0.19140  0.56109  1.0000
  H   H321      1.0  0.18253  0.19296  0.52694  1.0000
  S   S38       1.0  0.09007  0.23157  0.87478  1.0000
  H   H322      1.0  0.17122  0.21663  0.57079  1.0000
  H   H323      1.0  0.15055  0.18442  0.58146  1.0000
  H   H324      1.0  0.13552  0.16968  0.55672  1.0000
  C   C184      1.0  0.05513  0.19170  0.82835  1.0000
  H   H325      1.0  0.19309  0.22337  0.53125  1.0000
  C   C185      1.0  0.20428  0.07186  0.91599  1.0000
  C   C186      1.0  0.22295  0.06861  0.91865  1.0000
  H   H326      1.0  0.15964  0.15913  0.55954  1.0000
  H   H327      1.0  0.09758  0.20324  0.75346  1.0000
  H   H328      1.0  0.02553  0.19979  0.48753  1.0000
  H   H329      1.0  0.20105  0.03406  0.90574  1.0000
  H   H330      1.0  0.17848  0.21916  0.70162  1.0000
  H   H331      1.0  0.14638  0.23515  0.49295  1.0000
  C   C187      1.0  0.23798  0.04592  0.92323  1.0000
  H   H332      1.0  0.07827  0.18112  0.80151  1.0000
  H   H333      1.0  0.26235  0.07003  0.93994  1.0000
  C   C188      1.0  0.25228  0.21523  0.66040  1.0000
  H   H334      1.0  0.03989  0.21806  0.82085  1.0000
  H   H335      1.0  0.23419  0.03947  0.90330  1.0000
  H   H336      1.0  0.05025  0.20866  0.85970  1.0000
  H   H337      1.0  0.28619  0.06580  0.91196  1.0000
  H   H338      1.0  0.01553  0.19657  0.80194  1.0000
  H   H339      1.0  0.06770  0.17895  0.76918  1.0000
  C   C189      1.0  0.30381  0.12393  0.52444  1.0000
  H   H340      1.0  0.27922  0.10380  0.65164  1.0000
  C   C190      1.0  0.05224  0.21996  0.80893  1.0000
  H   H341      1.0  0.23388  0.08135  0.92769  1.0000
  H   H342      1.0  0.05831  0.18380  0.88102  1.0000
  C   C191      1.0  0.25768  0.06189  0.92138  1.0000
  N   N10       1.0  0.05394  0.20146  0.80317  1.0000
  C   C192      1.0  0.03714  0.19503  0.48351  1.0000
  H   H343      1.0  0.20552  0.99437  0.75645  1.0000
  H   H344      1.0  0.29019  0.16611  0.77960  1.0000
  H   H345      1.0  0.19306  0.16481  0.55079  1.0000
  C   C193      1.0  0.04253  0.19781  0.53280  1.0000
  C   C194      1.0  0.22289  0.06546  0.49504  1.0000
  C   C195      1.0  0.03810  0.18893  0.78550  1.0000
  H   H346      1.0  0.10803  0.20451  0.78588  1.0000
  C   C196      1.0  0.20416  0.00944  0.79119  1.0000
  H   H347      1.0  0.06240  0.23473  0.77195  1.0000
  C   C197      1.0  0.98490  0.19819  0.87105  1.0000
  C   C198      1.0  0.02165  0.22657  0.86648  1.0000
  C   C199      1.0  0.21244  0.06248  0.97651  1.0000
  H   H348      1.0  0.31122  0.18852  0.65104  1.0000
  H   H349      1.0  0.29731  0.17963  0.89838  1.0000
  C   C200      1.0  0.07777  0.18883  0.78350  1.0000
  N   N11       1.0  0.22245  0.05143  0.93312  1.0000
  H   H350      1.0  0.19437  0.09396  0.90668  1.0000
  C   C201      1.0  0.01800  0.18401  0.79542  1.0000
  H   H351      1.0  0.01545  0.17414  0.81185  1.0000
  H   H352      1.0  0.02901  0.19144  0.84620  1.0000
  C   C202      1.0  0.29624  0.19068  0.96488  1.0000
  H   H353      1.0  0.27762  0.17174  0.91951  1.0000
  H   H354      1.0  0.00470  0.16118  0.76703  1.0000
  H   H355      1.0  0.16090  0.17930  0.48967  1.0000
  H   H356      1.0  0.30348  0.14641  0.89561  1.0000
  H   H357      1.0  0.17263  0.00453  0.94417  1.0000
  C   C203      1.0  0.29304  0.16322  0.75917  1.0000
  S   S39       1.0  0.11911  0.23641  0.94291  1.0000
  N   N12       1.0  0.30623  0.12425  0.72542  1.0000
  H   H358      1.0  0.28585  0.07412  0.76858  1.0000
  H   H359      1.0  0.14066  0.24034  0.53963  1.0000
  C   C204      1.0  0.19431  0.99464  0.76936  1.0000
  H   H360      1.0  0.00462  0.18365  0.75719  1.0000
  C   C205      1.0  0.18266  0.00111  0.93198  1.0000
  H   H361      1.0  0.23817  0.06947  0.49889  1.0000
  C   C206      1.0  0.27163  0.18918  0.48904  1.0000
  C   C207      1.0  0.30139  0.08087  0.76832  1.0000
  H   H362      1.0  0.21440  0.07674  0.96985  1.0000
  H   H363      1.0  0.30539  0.16765  0.66987  1.0000
  C   C208      1.0  0.29659  0.14508  0.75806  1.0000
  H   H364      1.0  0.14547  0.24124  0.77028  1.0000
  H   H365      1.0  0.21202  0.01086  0.92497  1.0000
  H   H366      1.0  0.13456  0.17848  0.51488  1.0000
  H   H367      1.0  0.29389  0.12375  0.63370  1.0000
  C   C209      1.0  0.15807  0.19232  0.49108  1.0000
  C   C210      1.0  0.30026  0.10999  0.74685  1.0000
  H   H368      1.0  0.00902  0.23637  0.83482  1.0000
  C   C211      1.0  0.29551  0.17481  0.50101  1.0000
  H   H369      1.0  0.26597  0.18663  0.50901  1.0000
  H   H370      1.0  0.06158  0.19441  0.50561  1.0000
  C   C212      1.0  0.30755  0.09388  0.74505  1.0000
  N   N13       1.0  0.31355  0.17293  0.49357  1.0000
  H   H371      1.0  0.31361  0.13701  0.67320  1.0000
  C   C213      1.0  0.24296  0.13484  0.48232  1.0000
  H   H372      1.0  0.11973  0.19448  0.98067  1.0000
  H   H373      1.0  0.25969  0.10015  0.48172  1.0000
  H   H374      1.0  0.27003  0.20194  0.48153  1.0000
  C   C214      1.0  0.12022  0.24229  0.97677  1.0000
  C   C215      1.0  0.12937  0.24281  0.73589  1.0000
  S   S40       1.0  0.16708  0.36819  0.18504  1.0000
  Fe  Fe22      1.0  0.13858  0.25125  0.10124  1.0000
  S   S41       1.0  0.16514  0.25337  0.16858  1.0000
  S   S42       1.0  0.14056  0.27191  0.13352  1.0000
  Fe  Fe23      1.0  0.11320  0.27744  0.38127  1.0000
  S   S43       1.0  0.13052  0.26011  0.38017  1.0000
  S   S44       1.0  0.12715  0.30934  0.38326  1.0000
  S   S45       1.0  0.09281  0.26074  0.34925  1.0000
  S   S46       1.0  0.09501  0.26094  0.41325  1.0000
  C   C216      1.0  0.16402  0.31234  0.39053  1.0000
  C   C217      1.0  0.15162  0.32161  0.38933  1.0000
  C   C218      1.0  0.15882  0.34117  0.39293  1.0000
  H   H375      1.0  0.15875  0.29733  0.38797  1.0000
  H   H376      1.0  0.14940  0.34855  0.39193  1.0000
  C   C219      1.0  0.16234  0.33225  0.17293  1.0000
  C   C220      1.0  0.16790  0.31806  0.16371  1.0000
  H   H377      1.0  0.14849  0.32861  0.18064  1.0000
  H   H378      1.0  0.15845  0.30363  0.16489  1.0000
  C   C221      1.0  0.15343  0.46617  0.17274  1.0000
  C   C222      1.0  0.16469  0.47874  0.19191  1.0000
  H   H379      1.0  0.17711  0.47708  0.19968  1.0000
  N   N14       1.0  0.13451  0.30895  0.29557  1.0000
  C   C223      1.0  0.13386  0.30261  0.26741  1.0000
  C   C224      1.0  0.11548  0.29860  0.30676  1.0000
  C   C225      1.0  0.14754  0.28414  0.31022  1.0000
  C   C226      1.0  0.09923  0.30379  0.29560  1.0000
  C   C227      1.0  0.08064  0.29207  0.30788  1.0000
  H   H380      1.0  0.12748  0.28702  0.26563  1.0000
  H   H381      1.0  0.11117  0.28324  0.30338  1.0000
  H   H382      1.0  0.11601  0.30046  0.32841  1.0000
  H   H383      1.0  0.14791  0.27944  0.28981  1.0000
  H   H384      1.0  0.13431  0.27475  0.31892  1.0000
  H   H385      1.0  0.10185  0.31871  0.29973  1.0000
  H   H386      1.0  0.09738  0.30123  0.27414  1.0000
  H   H387      1.0  0.06932  0.29625  0.29989  1.0000
  H   H388      1.0  0.07678  0.27695  0.30331  1.0000
  H   H389      1.0  0.08159  0.29432  0.32947  1.0000
  H   H390      1.0  0.16683  0.39146  0.04904  1.0000
  C   C228      1.0  0.16249  0.28855  0.45016  1.0000
  H   H391      1.0  0.13332  0.29971  0.44220  1.0000
  H   H392      1.0  0.14947  0.28115  0.43821  1.0000
  H   H393      1.0  0.00862  0.48003  0.23736  1.0000
  H   H394      1.0  0.13929  0.35420  0.12726  1.0000
  S   S47       1.0  0.16922  0.25596  0.10406  1.0000
  H   H395      1.0  0.15933  0.42093  0.09838  1.0000
  C   C229      1.0  0.21732  0.37719  0.09658  1.0000
  C   C230      1.0  0.14896  0.30467  0.31174  1.0000
  H   H396      1.0  0.12437  0.30737  0.25538  1.0000
  H   H397      1.0  0.14001  0.30327  0.21408  1.0000
  C   C231      1.0  0.19782  0.36378  0.08713  1.0000
  C   C232      1.0  0.18267  0.37132  0.09459  1.0000
  H   H398      1.0  0.18228  0.37089  0.11628  1.0000
  H   H399      1.0  0.15905  0.37560  0.13350  1.0000
  N   N15       1.0  0.16332  0.36105  0.08259  1.0000
  H   H400      1.0  0.19502  0.35018  0.09674  1.0000
  C   C233      1.0  0.14613  0.36899  0.12134  1.0000
  C   C234      1.0  0.15078  0.37076  0.09182  1.0000
  H   H401      1.0  0.13929  0.39392  0.12363  1.0000
  H   H402      1.0  0.14866  0.35495  0.04500  1.0000
  H   H403      1.0  0.17092  0.35342  0.04466  1.0000
  H   H404      1.0  0.13018  0.37753  0.14940  1.0000
  C   C235      1.0  0.15061  0.30033  0.22635  1.0000
  C   C236      1.0  0.16333  0.36169  0.05304  1.0000
  H   H405      1.0  0.18783  0.38651  0.09010  1.0000
  H   H406      1.0  0.13714  0.36536  0.08054  1.0000
  H   H407      1.0  0.19828  0.36191  0.06569  1.0000
  C   C237      1.0  0.17251  0.38139  0.04109  1.0000
  C   C238      1.0  0.13291  0.37879  0.12812  1.0000
  H   H408      1.0  0.15721  0.38605  0.08825  1.0000
  H   H409      1.0  0.11931  0.37224  0.11712  1.0000
  H   H410      1.0  0.18790  0.38702  0.04509  1.0000
  H   H411      1.0  0.14784  0.30763  0.33285  1.0000
  C   C239      1.0  0.98258  0.48518  0.05733  1.0000
  Fe  Fe24      1.0  0.17057  0.27545  0.13797  1.0000
  H   H412      1.0  0.13039  0.33383  0.28269  1.0000
  H   H413      1.0  0.12567  0.33176  0.33313  1.0000
  C   C240      1.0  0.13961  0.32984  0.29641  1.0000
  C   C241      1.0  0.17458  0.35105  0.17234  1.0000
  H   H414      1.0  0.16527  0.42614  0.06450  1.0000
  H   H415      1.0  0.16419  0.30574  0.21637  1.0000
  C   C242      1.0  0.15512  0.34097  0.09165  1.0000
  H   H416      1.0  0.16002  0.34013  0.11216  1.0000
  H   H417      1.0  0.13953  0.33593  0.09229  1.0000
  H   H418      1.0  0.17348  0.32971  0.07025  1.0000
  H   H419      1.0  0.15031  0.32344  0.05602  1.0000
  C   C243      1.0  0.15853  0.32581  0.07480  1.0000
  H   H420      1.0  0.16412  0.28608  0.34612  1.0000
  C   C244      1.0  0.15284  0.30963  0.25340  1.0000
  H   H421      1.0  0.16371  0.30636  0.26443  1.0000
  C   C245      1.0  0.13942  0.33852  0.32388  1.0000
  H   H422      1.0  0.15488  0.37471  0.26873  1.0000
  H   H423      1.0  0.14619  0.28494  0.22801  1.0000
  C   C246      1.0  0.16383  0.28182  0.32529  1.0000
  H   H424      1.0  0.01892  0.45730  0.19863  1.0000
  C   C247      1.0  0.15722  0.42845  0.08097  1.0000
  H   H425      1.0  0.14208  0.42260  0.07524  1.0000
  C   C248      1.0  0.16350  0.44934  0.08742  1.0000
  C   C249      1.0  0.15203  0.30718  0.08891  1.0000
  C   C250      1.0  0.01281  0.44764  0.18167  1.0000
  H   H426      1.0  0.15766  0.36714  0.31481  1.0000
  H   H427      1.0  0.15803  0.32500  0.25073  1.0000
  H   H428      1.0  0.16112  0.38386  0.23647  1.0000
  C   C251      1.0  0.14346  0.35944  0.32238  1.0000
  H   H429      1.0  0.13706  0.30263  0.09413  1.0000
  H   H430      1.0  0.15340  0.29611  0.07621  1.0000
  H   H431      1.0  0.16342  0.31410  0.30672  1.0000
  H   H432      1.0  0.15401  0.33717  0.28926  1.0000
  H   H433      1.0  0.13279  0.36190  0.30965  1.0000
  C   C252      1.0  0.17815  0.35131  0.39803  1.0000
  H   H434      1.0  0.17740  0.29035  0.31652  1.0000
  H   H435      1.0  0.16145  0.32528  0.44578  1.0000
  S   S48       1.0  0.98965  0.46586  0.99466  1.0000
  C   C253      1.0  0.21193  0.37873  0.33694  1.0000
  H   H436      1.0  0.00913  0.48425  0.04803  1.0000
  H   H437      1.0  0.18064  0.31690  0.02063  1.0000
  H   H438      1.0  0.16210  0.26687  0.32449  1.0000
  Fe  Fe25      1.0  0.13483  0.24872  0.16209  1.0000
  H   H439      1.0  0.16233  0.39952  0.26338  1.0000
  C   C254      1.0  0.16457  0.38663  0.25771  1.0000
  H   H440      1.0  0.17121  0.30126  0.43985  1.0000
  H   H441      1.0  0.18342  0.36633  0.40094  1.0000
  H   H442      1.0  0.15041  0.33703  0.33698  1.0000
  H   H443      1.0  0.16077  0.30850  0.10694  1.0000
  C   C255      1.0  0.18573  0.32253  0.15362  1.0000
  C   C256      1.0  0.19249  0.35564  0.16238  1.0000
  H   H444      1.0  0.14298  0.36508  0.34231  1.0000
  C   C257      1.0  0.18334  0.32247  0.39550  1.0000
  H   H445      1.0  0.16101  0.45644  0.06981  1.0000
  N   N16       1.0  0.20839  0.37271  0.26057  1.0000
  S   S49       1.0  0.22024  0.43522  0.36277  1.0000
  S   S50       1.0  0.21352  0.45198  0.17229  1.0000
  C   C258      1.0  0.20848  0.35333  0.25711  1.0000
  S   S51       1.0  0.18190  0.42007  0.20736  1.0000
  H   H446      1.0  0.21997  0.32716  0.23168  1.0000
  C   C259      1.0  0.19804  0.34139  0.15306  1.0000
  S   S52       1.0  0.18201  0.41451  0.14331  1.0000
  H   H447      1.0  0.18492  0.45315  0.11750  1.0000
  Fe  Fe26      1.0  0.18439  0.39882  0.17898  1.0000
  H   H448      1.0  0.19276  0.31509  0.39660  1.0000
  S   S53       1.0  0.23310  0.43127  0.11263  1.0000
  H   H449      1.0  0.21777  0.39498  0.29000  1.0000
  H   H450      1.0  0.21191  0.34498  0.14541  1.0000
  C   C260      1.0  0.18436  0.45793  0.09711  1.0000
  C   C261      1.0  0.20524  0.32557  0.22753  1.0000
  C   C262      1.0  0.21997  0.42783  0.02394  1.0000
  Fe  Fe27      1.0  0.21327  0.42822  0.14610  1.0000
  H   H451      1.0  0.19594  0.31574  0.24165  1.0000
  H   H452      1.0  0.21410  0.38255  0.22086  1.0000
  C   C263      1.0  0.19053  0.34198  0.39959  1.0000
  H   H453      1.0  0.18412  0.36828  0.23540  1.0000
  Fe  Fe28      1.0  0.23264  0.42330  0.39556  1.0000
  C   C264      1.0  0.20412  0.36891  0.31066  1.0000
  C   C265      1.0  0.21289  0.43724  0.28393  1.0000
  Fe  Fe29      1.0  0.21339  0.43317  0.20615  1.0000
  S   S54       1.0  0.19291  0.30481  0.14186  1.0000
  S   S55       1.0  0.15906  0.44760  0.15984  1.0000
  C   C266      1.0  0.20590  0.42638  0.04179  1.0000
  S   S56       1.0  0.21563  0.41074  0.17980  1.0000
  C   C267      1.0  0.18856  0.37155  0.25633  1.0000
  C   C268      1.0  0.21589  0.38002  0.28772  1.0000
  C   C269      1.0  0.22933  0.43650  0.27404  1.0000
  H   H454      1.0  0.19214  0.42493  0.03447  1.0000
  H   H455      1.0  0.18930  0.36745  0.30879  1.0000
  H   H456      1.0  0.22166  0.46303  0.09626  1.0000
  H   H457      1.0  0.19397  0.40155  0.25231  1.0000
  H   H458      1.0  0.18883  0.34244  0.22333  1.0000
  C   C270      1.0  0.22058  0.38600  0.24091  1.0000
  C   C271      1.0  0.20946  0.42655  0.06899  1.0000
  H   H459      1.0  0.20209  0.37011  0.16203  1.0000
  C   C272      1.0  0.18499  0.38942  0.26363  1.0000
  H   H460      1.0  0.22146  0.40045  0.24497  1.0000
  H   H461      1.0  0.19773  0.43773  0.31868  1.0000
  H   H462      1.0  0.17857  0.35969  0.26715  1.0000
  H   H463      1.0  0.21292  0.35357  0.21436  1.0000
  Fe  Fe30      1.0  0.23098  0.41652  0.45535  1.0000
  S   S57       1.0  0.21169  0.40255  0.42100  1.0000
  Fe  Fe31      1.0  0.22889  0.38528  0.41640  1.0000
  C   C273      1.0  0.20348  0.34459  0.22908  1.0000
  H   H464      1.0  0.20111  0.31945  0.20748  1.0000
  H   H465      1.0  0.19842  0.42477  0.08253  1.0000
  H   H466      1.0  0.18542  0.46101  0.04262  1.0000
  S   S58       1.0  0.21486  0.35386  0.40730  1.0000
  H   H467      1.0  0.19215  0.45123  0.08576  1.0000
  C   C274      1.0  0.21012  0.43634  0.31111  1.0000
  C   C275      1.0  0.22345  0.43416  0.32862  1.0000
  H   H468      1.0  0.18786  0.39305  0.28476  1.0000
  H   H469      1.0  0.20270  0.43933  0.27077  1.0000
  Fe  Fe32      1.0  0.18196  0.43705  0.17173  1.0000
  H   H470      1.0  0.19819  0.34337  0.27019  1.0000
  C   C276      1.0  0.22743  0.42922  0.07862  1.0000
  H   H471      1.0  0.20445  0.35469  0.31142  1.0000
  H   H472      1.0  0.22229  0.35310  0.26350  1.0000
  C   C277      1.0  0.16406  0.28776  0.02002  1.0000
  H   H473      1.0  0.01416  0.43413  0.18589  1.0000
  H   H474      1.0  0.18621  0.27853  0.03303  1.0000
  H   H475      1.0  0.02092  0.45360  0.16400  1.0000
  H   H476      1.0  0.20356  0.37036  0.35308  1.0000
  C   C278      1.0  0.17495  0.28225  0.04152  1.0000
  H   H477      1.0  0.18128  0.29385  0.05611  1.0000
  H   H478      1.0  0.22673  0.38024  0.34020  1.0000
  H   H479      1.0  0.04669  0.26262  0.46562  1.0000
  H   H480      1.0  0.15435  0.45091  0.10295  1.0000
  H   H481      1.0  0.16521  0.26987  0.05170  1.0000
  H   H482      1.0  0.23019  0.37999  0.29091  1.0000
  C   C279      1.0  0.22720  0.47844  0.09868  1.0000
  H   H483      1.0  0.06011  0.25830  0.43994  1.0000
  H   H484      1.0  0.22146  0.39062  0.08608  1.0000
  H   H485      1.0  0.10268  0.30237  0.42874  1.0000
  C   C280      1.0  0.23772  0.42973  0.03357  1.0000
  S   S59       1.0  0.23461  0.44004  0.24046  1.0000
  C   C281      1.0  0.24148  0.43065  0.06079  1.0000
  H   H486      1.0  0.00108  0.46962  0.38428  1.0000
  C   C282      1.0  0.17342  0.27573  0.45161  1.0000
  H   H487      1.0  0.21119  0.39281  0.33776  1.0000
  H   H488      1.0  0.18719  0.28297  0.46194  1.0000
  H   H489      1.0  0.99928  0.46917  0.15361  1.0000
  C   C283      1.0  0.16173  0.32623  0.46753  1.0000
  H   H490      1.0  0.21766  0.38007  0.11795  1.0000
  C   C284      1.0  0.10014  0.30374  0.44980  1.0000
  C   C285      1.0  0.13073  0.30071  0.46340  1.0000
  C   C286      1.0  0.23944  0.43244  0.31859  1.0000
  H   H491      1.0  0.17594  0.27188  0.43148  1.0000
  C   C287      1.0  0.17694  0.30537  0.00565  1.0000
  H   H492      1.0  0.16533  0.26266  0.46193  1.0000
  H   H493      1.0  0.22777  0.37090  0.09259  1.0000
  S   S60       1.0  0.12226  0.25524  0.06538  1.0000
  H   H494      1.0  0.20416  0.36617  0.00029  1.0000
  H   H495      1.0  0.24186  0.37344  0.23663  1.0000
  C   C288      1.0  0.24115  0.38733  0.23997  1.0000
  H   H496      1.0  0.12866  0.45908  0.14776  1.0000
  C   C289      1.0  0.11065  0.25575  0.01427  1.0000
  C   C290      1.0  0.00387  0.49238  0.06149  1.0000
  C   C291      1.0  0.24251  0.43393  0.29148  1.0000
  H   H497      1.0  0.19048  0.35783  0.45136  1.0000
  C   C292      1.0  0.13742  0.46868  0.16269  1.0000
  H   H498      1.0  0.98549  0.45221  0.11825  1.0000
  S   S61       1.0  0.25052  0.43935  0.43028  1.0000
  C   C293      1.0  0.98867  0.46922  0.33288  1.0000
  H   H499      1.0  0.23175  0.48504  0.07954  1.0000
  C   C294      1.0  0.05507  0.25432  0.46002  1.0000
  H   H500      1.0  0.19032  0.30359  0.00174  1.0000
  C   C295      1.0  0.19854  0.47341  0.04668  1.0000
  H   H501      1.0  0.09187  0.28968  0.45749  1.0000
  C   C296      1.0  0.16926  0.38060  0.01140  1.0000
  H   H502      1.0  0.06727  0.25786  0.47394  1.0000
  H   H503      1.0  0.15764  0.27559  0.00662  1.0000
  H   H504      1.0  0.20561  0.47420  0.00580  1.0000
  H   H505      1.0  0.15248  0.29056  0.02928  1.0000
  H   H506      1.0  0.16753  0.48284  0.10151  1.0000
  C   C297      1.0  0.09655  0.48484  0.27511  1.0000
  H   H507      1.0  0.12600  0.49121  0.27869  1.0000
  N   N17       1.0  0.19364  0.47898  0.09612  1.0000
  S   S62       1.0  0.24907  0.40529  0.38916  1.0000
  H   H508      1.0  0.09433  0.47396  0.25961  1.0000
  H   H509      1.0  0.09353  0.47788  0.29433  1.0000
  H   H510      1.0  0.09177  0.31260  0.45155  1.0000
  H   H511      1.0  0.08970  0.24339  0.23696  1.0000
  H   H512      1.0  0.98518  0.43920  0.19602  1.0000
  C   C298      1.0  0.99213  0.44442  0.17737  1.0000
  C   C299      1.0  0.15767  0.29341  0.47782  1.0000
  C   C300      1.0  0.99070  0.47518  0.39156  1.0000
  H   H513      1.0  0.14510  0.31219  0.99981  1.0000
  H   H514      1.0  0.18281  0.48867  0.06206  1.0000
  H   H515      1.0  0.12200  0.28610  0.46892  1.0000
  H   H516      1.0  0.12625  0.32686  0.45705  1.0000
  H   H517      1.0  0.19988  0.24656  0.02572  1.0000
  C   C301      1.0  0.24480  0.48404  0.11639  1.0000
  H   H518      1.0  0.10233  0.26302  0.02208  1.0000
  S   S63       1.0  0.24739  0.39798  0.45214  1.0000
  C   C302      1.0  0.12186  0.24996  0.03139  1.0000
  H   H519      1.0  0.24135  0.47750  0.13582  1.0000
  C   C303      1.0  0.19555  0.48616  0.06846  1.0000
  H   H520      1.0  0.17914  0.48088  0.13111  1.0000
  H   H521      1.0  0.98474  0.45316  0.29655  1.0000
  H   H522      1.0  0.98639  0.43351  0.16177  1.0000
  H   H523      1.0  0.99587  0.47266  0.18676  1.0000
  H   H524      1.0  0.18775  0.25119  0.22070  1.0000
  C   C304      1.0  0.98980  0.46279  0.16997  1.0000
  H   H525      1.0  0.14078  0.29003  0.98523  1.0000
  C   C305      1.0  0.20402  0.48382  0.02102  1.0000
  C   C306      1.0  0.10977  0.25189  0.98714  1.0000
  H   H526      1.0  0.99639  0.48153  0.41116  1.0000
  H   H527      1.0  0.98809  0.45702  0.34461  1.0000
  H   H528      1.0  0.00350  0.47753  0.32836  1.0000
  C   C307      1.0  0.21252  0.48527  0.11028  1.0000
  H   H529      1.0  0.24868  0.43090  0.02006  1.0000
  H   H530      1.0  0.20952  0.46806  0.05205  1.0000
  C   C308      1.0  0.18164  0.48692  0.11119  1.0000
  H   H531      1.0  0.98478  0.43790  0.40359  1.0000
  C   C309      1.0  0.11870  0.31280  0.46524  1.0000
  H   H532      1.0  0.98260  0.45032  0.43271  1.0000
  C   C310      1.0  0.19260  0.35462  0.47200  1.0000
  H   H533      1.0  0.15406  0.37594  0.00631  1.0000
  H   H534      1.0  0.15633  0.33739  0.47179  1.0000
  N   N18       1.0  0.14906  0.30794  0.47896  1.0000
  C   C311      1.0  0.99663  0.48564  0.47671  1.0000
  H   H535      1.0  0.21062  0.48093  0.13112  1.0000
  H   H536      1.0  0.17334  0.33854  0.99440  1.0000
  C   C312      1.0  0.00129  0.48908  0.98365  1.0000
  H   H537      1.0  0.24968  0.43061  0.33182  1.0000
  H   H538      1.0  0.19016  0.24600  0.05756  1.0000
  C   C313      1.0  0.13255  0.48345  0.17187  1.0000
  H   H539      1.0  0.17660  0.39476  0.00330  1.0000
  H   H540      1.0  0.20792  0.35903  0.47594  1.0000
  H   H541      1.0  0.20622  0.33530  0.99540  1.0000
  H   H542      1.0  0.24479  0.39387  0.19854  1.0000
  H   H543      1.0  0.24890  0.39351  0.25853  1.0000
  H   H544      1.0  0.08655  0.49179  0.27116  1.0000
  C   C314      1.0  0.13451  0.24562  0.23916  1.0000
  H   H545      1.0  0.00677  0.48931  0.08189  1.0000
  N   N19       1.0  0.98905  0.48985  0.37351  1.0000
  H   H546      1.0  0.09835  0.24685  0.46921  1.0000
  C   C315      1.0  0.14820  0.30529  0.98231  1.0000
  C   C316      1.0  0.18268  0.33367  0.47692  1.0000
  H   H547      1.0  0.14619  0.24781  0.22663  1.0000
  H   H548      1.0  0.12017  0.48517  0.16402  1.0000
  H   H549      1.0  0.19016  0.32619  0.46616  1.0000
  C   C317      1.0  0.10281  0.24346  0.24510  1.0000
  C   C318      1.0  0.11758  0.24532  0.22835  1.0000
  S   S64       1.0  0.11400  0.24654  0.19412  1.0000
  S   S65       1.0  0.21477  0.42779  0.98994  1.0000
  H   H550      1.0  0.02458  0.48580  0.48007  1.0000
  H   H551      1.0  0.25164  0.41417  0.22026  1.0000
  H   H552      1.0  0.19302  0.48883  0.01412  1.0000
  H   H553      1.0  0.17489  0.37092  0.00203  1.0000
  C   C319      1.0  0.25153  0.39983  0.21778  1.0000
  H   H554      1.0  0.20715  0.24559  0.23250  1.0000
  H   H555      1.0  0.98474  0.49271  0.24991  1.0000
  C   C320      1.0  0.30268  0.47129  0.27661  1.0000
  C   C321      1.0  0.31072  0.47017  0.30390  1.0000
  H   H556      1.0  0.27618  0.42805  0.35509  1.0000
  C   C322      1.0  0.28084  0.48286  0.37175  1.0000
  H   H557      1.0  0.28236  0.40082  0.34045  1.0000
  H   H558      1.0  0.27256  0.45370  0.36284  1.0000
  H   H559      1.0  0.25505  0.47901  0.10742  1.0000
  H   H560      1.0  0.26629  0.40087  0.21786  1.0000
  H   H561      1.0  0.31393  0.45737  0.30414  1.0000
  C   C323      1.0  0.29675  0.46998  0.32518  1.0000
  H   H562      1.0  0.29960  0.48417  0.27493  1.0000
  H   H563      1.0  0.30696  0.46872  0.43651  1.0000
  H   H564      1.0  0.25304  0.46826  0.38726  1.0000
  H   H565      1.0  0.28262  0.45944  0.31932  1.0000
  H   H566      1.0  0.28618  0.43175  0.32323  1.0000
  H   H567      1.0  0.29528  0.48372  0.32392  1.0000
  H   H568      1.0  0.27495  0.48523  0.35271  1.0000
  C   C324      1.0  0.26606  0.48064  0.39215  1.0000
  H   H569      1.0  0.25539  0.43256  0.06807  1.0000
  N   N20       1.0  0.30197  0.46674  0.35280  1.0000
  H   H570      1.0  0.28957  0.45886  0.27239  1.0000
  Fe  Fe33      1.0  0.26617  0.42014  0.42523  1.0000
  C   C325      1.0  0.29419  0.41355  0.34784  1.0000
  H   H571      1.0  0.29680  0.41162  0.36890  1.0000
  C   C326      1.0  0.28915  0.43071  0.34438  1.0000
  H   H572      1.0  0.30688  0.41505  0.33679  1.0000
  C   C327      1.0  0.28573  0.46513  0.36994  1.0000
  H   H573      1.0  0.30826  0.44648  0.37571  1.0000
  C   C328      1.0  0.30524  0.44872  0.35492  1.0000
  S   S66       1.0  0.29837  0.42858  0.42490  1.0000
  H   H574      1.0  0.28845  0.46128  0.39019  1.0000
  H   H575      1.0  0.25524  0.43329  0.28397  1.0000
  H   H576      1.0  0.27148  0.47905  0.41193  1.0000
  H   H577      1.0  0.31301  0.47169  0.26164  1.0000
  H   H578      1.0  0.02803  0.48645  0.98146  1.0000
  Fe  Fe34      1.0  0.18958  0.43852  0.67695  1.0000
  S   S67       1.0  0.22062  0.44438  0.67964  1.0000
  S   S68       1.0  0.18315  0.46495  0.67254  1.0000
  Fe  Fe35      1.0  0.17978  0.39620  0.67380  1.0000
  S   S69       1.0  0.20985  0.39964  0.67587  1.0000
  S   S70       1.0  0.15700  0.36723  0.66792  1.0000
  Fe  Fe36      1.0  0.21288  0.42074  0.70811  1.0000
  S   S71       1.0  0.23038  0.41773  0.74324  1.0000
  Fe  Fe37      1.0  0.21462  0.42273  0.64729  1.0000
  S   S72       1.0  0.23454  0.42604  0.61361  1.0000
  S   S73       1.0  0.18219  0.41611  0.70761  1.0000
  S   S74       1.0  0.18421  0.41806  0.64314  1.0000
  H   H579      1.0  0.27253  0.46296  0.83093  1.0000
  H   H580      1.0  0.14582  0.48319  0.79695  1.0000
  S   S75       1.0  0.15987  0.25252  0.59911  1.0000
  Fe  Fe38      1.0  0.16202  0.27219  0.63313  1.0000
  S   S76       1.0  0.18393  0.30169  0.63759  1.0000
  S   S77       1.0  0.13181  0.26802  0.63102  1.0000
  Fe  Fe39      1.0  0.23023  0.39126  0.91993  1.0000
  S   S78       1.0  0.21384  0.40961  0.92071  1.0000
  S   S79       1.0  0.21617  0.35984  0.91130  1.0000
  Fe  Fe40      1.0  0.26800  0.42495  0.93056  1.0000
  S   S80       1.0  0.25348  0.44529  0.93262  1.0000
  C   C329      1.0  0.02101  0.45741  0.64462  1.0000
  Fe  Fe41      1.0  0.23181  0.42334  0.95637  1.0000
  H   H581      1.0  0.18039  0.33234  0.55197  1.0000
  Fe  Fe42      1.0  0.23683  0.42946  0.89697  1.0000
  S   S81       1.0  0.22969  0.44365  0.86181  1.0000
  S   S82       1.0  0.24730  0.40387  0.95671  1.0000
  S   S83       1.0  0.25224  0.41025  0.89375  1.0000
  H   H582      1.0  0.98532  0.42666  0.92130  1.0000
  Fe  Fe43      1.0  0.11322  0.28582  0.88391  1.0000
  S   S84       1.0  0.12965  0.26755  0.88351  1.0000
  S   S85       1.0  0.12804  0.31753  0.88942  1.0000
  H   H583      1.0  0.11057  0.30749  0.94475  1.0000
  H   H584      1.0  0.14793  0.27992  0.48567  1.0000
  C   C330      1.0  0.11729  0.30402  0.96231  1.0000
  S   S86       1.0  0.09580  0.27200  0.84795  1.0000
  S   S87       1.0  0.09153  0.26772  0.91150  1.0000
  C   C331      1.0  0.19163  0.34832  0.90542  1.0000
  C   C332      1.0  0.18441  0.32969  0.89604  1.0000
  C   C333      1.0  0.16499  0.32006  0.89113  1.0000
  C   C334      1.0  0.15256  0.32897  0.89562  1.0000
  C   C335      1.0  0.15981  0.34763  0.90489  1.0000
  C   C336      1.0  0.17922  0.35723  0.90988  1.0000
  H   H585      1.0  0.19388  0.32264  0.89250  1.0000
  H   H586      1.0  0.15966  0.30577  0.88379  1.0000
  H   H587      1.0  0.15034  0.35468  0.90834  1.0000
  H   H588      1.0  0.18451  0.37153  0.91720  1.0000
  H   H589      1.0  0.14211  0.32390  0.50926  1.0000
  H   H590      1.0  0.20150  0.36750  0.96508  1.0000
  H   H591      1.0  0.30078  0.40700  0.85034  1.0000
  H   H592      1.0  0.16971  0.27358  0.96996  1.0000
  H   H593      1.0  0.17883  0.25415  0.54593  1.0000
  H   H594      1.0  0.00105  0.47551  0.66799  1.0000
  S   S88       1.0  0.11038  0.24727  0.56399  1.0000
  H   H595      1.0  0.20383  0.46691  0.50587  1.0000
  C   C337      1.0  0.22878  0.42426  0.57960  1.0000
  C   C338      1.0  0.21036  0.41955  0.57019  1.0000
  C   C339      1.0  0.20630  0.41795  0.54303  1.0000
  C   C340      1.0  0.22058  0.42098  0.52494  1.0000
  C   C341      1.0  0.23904  0.42581  0.53433  1.0000
  C   C342      1.0  0.24310  0.42744  0.56153  1.0000
  H   H596      1.0  0.19926  0.41713  0.58384  1.0000
  H   H597      1.0  0.19199  0.41433  0.53595  1.0000
  H   H598      1.0  0.25018  0.42835  0.52065  1.0000
  H   H599      1.0  0.25741  0.43113  0.56861  1.0000
  C   C343      1.0  0.22938  0.42458  0.77615  1.0000
  C   C344      1.0  0.21960  0.43579  0.78317  1.0000
  C   C345      1.0  0.21984  0.44152  0.80948  1.0000
  C   C346      1.0  0.22949  0.43581  0.82907  1.0000
  C   C347      1.0  0.23905  0.42438  0.82209  1.0000
  C   C348      1.0  0.23909  0.41890  0.79574  1.0000
  H   H600      1.0  0.21215  0.44032  0.76827  1.0000
  H   H601      1.0  0.21245  0.45042  0.81470  1.0000
  H   H602      1.0  0.24663  0.41997  0.83691  1.0000
  H   H603      1.0  0.24673  0.41027  0.79046  1.0000
  C   C349      1.0  0.16443  0.34887  0.66019  1.0000
  C   C350      1.0  0.15258  0.33349  0.64502  1.0000
  C   C351      1.0  0.15834  0.31888  0.63813  1.0000
  C   C352      1.0  0.17592  0.31942  0.64666  1.0000
  C   C353      1.0  0.18768  0.33471  0.66202  1.0000
  C   C354      1.0  0.18194  0.34933  0.66884  1.0000
  H   H604      1.0  0.13910  0.33312  0.63802  1.0000
  H   H605      1.0  0.14934  0.30746  0.62572  1.0000
  H   H606      1.0  0.20124  0.33518  0.66885  1.0000
  H   H607      1.0  0.19099  0.36078  0.68118  1.0000
  C   C355      1.0  0.16237  0.46859  0.67970  1.0000
  C   C356      1.0  0.14648  0.45431  0.68901  1.0000
  H   H608      1.0  0.20664  0.31822  0.58449  1.0000
  C   C357      1.0  0.98374  0.47983  0.86407  1.0000
  H   H609      1.0  0.26132  0.48571  0.90684  1.0000
  H   H610      1.0  0.22609  0.46294  0.58782  1.0000
  H   H611      1.0  0.17509  0.30345  0.72930  1.0000
  C   C358      1.0  0.15854  0.43929  0.58416  1.0000
  H   H612      1.0  0.28116  0.44124  0.80637  1.0000
  H   H613      1.0  0.99523  0.47715  0.85417  1.0000
  H   H614      1.0  0.24254  0.37970  0.56590  1.0000
  H   H615      1.0  0.22455  0.48534  0.55725  1.0000
  H   H616      1.0  0.29293  0.41469  0.87945  1.0000
  H   H617      1.0  0.27872  0.40995  0.84948  1.0000
  C   C359      1.0  0.29327  0.41568  0.85780  1.0000
  H   H618      1.0  0.24002  0.38835  0.64665  1.0000
  C   C360      1.0  0.27760  0.46009  0.77835  1.0000
  H   H619      1.0  0.24918  0.38470  0.83595  1.0000
  C   C361      1.0  0.13311  0.24330  0.76307  1.0000
  C   C362      1.0  0.11264  0.48092  0.77680  1.0000
  H   H620      1.0  0.22332  0.36013  0.81067  1.0000
  H   H621      1.0  0.24722  0.37174  0.62983  1.0000
  H   H622      1.0  0.16382  0.34866  0.58285  1.0000
  H   H623      1.0  0.20204  0.38068  0.57708  1.0000
  H   H624      1.0  0.19107  0.40474  0.82603  1.0000
  H   H625      1.0  0.20329  0.39042  0.79904  1.0000
  H   H626      1.0  0.20506  0.34458  0.61368  1.0000
  H   H627      1.0  0.27825  0.44128  0.85788  1.0000
  H   H628      1.0  0.29625  0.44946  0.88221  1.0000
  C   C363      1.0  0.13830  0.30991  0.95814  1.0000
  H   H629      1.0  0.18957  0.39721  0.75821  1.0000
  C   C364      1.0  0.18942  0.33332  0.56966  1.0000
  C   C365      1.0  0.14753  0.42092  0.59763  1.0000
  H   H630      1.0  0.19574  0.24802  0.56492  1.0000
  C   C366      1.0  0.23803  0.47675  0.62421  1.0000
  H   H631      1.0  0.30711  0.47184  0.93570  1.0000
  H   H632      1.0  0.13992  0.30232  0.94042  1.0000
  H   H633      1.0  0.09538  0.25085  0.78508  1.0000
  C   C367      1.0  0.19542  0.37502  0.79797  1.0000
  H   H634      1.0  0.20498  0.36962  0.78794  1.0000
  H   H635      1.0  0.30387  0.43604  0.82815  1.0000
  H   H636      1.0  0.07826  0.46579  0.74856  1.0000
  H   H637      1.0  0.22745  0.36364  0.65129  1.0000
  S   S89       1.0  0.10740  0.24355  0.69243  1.0000
  H   H638      1.0  0.29115  0.48305  0.81942  1.0000
  S   S90       1.0  0.12549  0.24514  0.81494  1.0000
  H   H639      1.0  0.99892  0.46010  0.93528  1.0000
  C   C368      1.0  0.04913  0.24980  0.79326  1.0000
  H   H640      1.0  0.11478  0.31151  0.97954  1.0000
  H   H641      1.0  0.20107  0.45118  0.56000  1.0000
  H   H642      1.0  0.16270  0.25839  0.92594  1.0000
  H   H643      1.0  0.17090  0.30805  0.93903  1.0000
  H   H644      1.0  0.23191  0.38072  0.50779  1.0000
  C   C369      1.0  0.18075  0.48064  0.58253  1.0000
  H   H645      1.0  0.00143  0.44397  0.67415  1.0000
  C   C370      1.0  0.10092  0.24780  0.74427  1.0000
  H   H646      1.0  0.04846  0.25793  0.77573  1.0000
  C   C371      1.0  0.17814  0.33165  0.97845  1.0000
  H   H647      1.0  0.18960  0.30555  0.95690  1.0000
  H   H648      1.0  0.14667  0.44055  0.69210  1.0000
  C   C372      1.0  0.12975  0.47565  0.69048  1.0000
  C   C373      1.0  0.22090  0.46566  0.60683  1.0000
  H   H649      1.0  0.09109  0.47932  0.80526  1.0000
  H   H650      1.0  0.16697  0.47169  0.77086  1.0000
  H   H651      1.0  0.14385  0.32511  0.95432  1.0000
  H   H652      1.0  0.16935  0.47532  0.56722  1.0000
  C   C374      1.0  0.28761  0.46838  0.82591  1.0000
  C   C375      1.0  0.30337  0.43597  0.84973  1.0000
  H   H653      1.0  0.26313  0.45830  0.78355  1.0000
  H   H654      1.0  0.17054  0.29766  0.49065  1.0000
  H   H655      1.0  0.26941  0.46209  0.88257  1.0000
  H   H656      1.0  0.99915  0.47477  0.74496  1.0000
  C   C376      1.0  0.19751  0.31784  0.56717  1.0000
  H   H657      1.0  0.18711  0.36618  0.55242  1.0000
  C   C377      1.0  0.13030  0.45786  0.69444  1.0000
  H   H658      1.0  0.20998  0.37715  0.62191  1.0000
  H   H659      1.0  0.02995  0.46909  0.65781  1.0000
  H   H660      1.0  0.06349  0.46491  0.77564  1.0000
  S   S91       1.0  0.15836  0.25055  0.66407  1.0000
  H   H661      1.0  0.25335  0.39509  0.52470  1.0000
  C   C378      1.0  0.27669  0.47709  0.87797  1.0000
  Fe  Fe44      1.0  0.10746  0.24864  0.90931  1.0000
  H   H662      1.0  0.16284  0.47233  0.61727  1.0000
  S   S92       1.0  0.29977  0.43152  0.93319  1.0000
  H   H663      1.0  0.98202  0.46260  0.70251  1.0000
  H   H664      1.0  0.12421  0.31241  0.54970  1.0000
  H   H665      1.0  0.17981  0.35676  0.61058  1.0000
  N   N21       1.0  0.19140  0.36722  0.82511  1.0000
  C   C379      1.0  0.17983  0.37572  0.84000  1.0000
  C   C380      1.0  0.18178  0.34607  0.82434  1.0000
  C   C381      1.0  0.21007  0.37247  0.83968  1.0000
  C   C382      1.0  0.18872  0.39724  0.84481  1.0000
  C   C383      1.0  0.15997  0.33750  0.82246  1.0000
  C   C384      1.0  0.15259  0.31628  0.81790  1.0000
  C   C385      1.0  0.17593  0.40392  0.86085  1.0000
  H   H666      1.0  0.17667  0.36914  0.85950  1.0000
  H   H667      1.0  0.16598  0.37262  0.83015  1.0000
  H   H668      1.0  0.02702  0.44644  0.64471  1.0000
  H   H669      1.0  0.18517  0.34021  0.84271  1.0000
  H   H670      1.0  0.20797  0.37089  0.86112  1.0000
  H   H671      1.0  0.20224  0.40148  0.85602  1.0000
  H   H672      1.0  0.15418  0.34006  0.84114  1.0000
  H   H673      1.0  0.03686  0.48383  0.81143  1.0000
  H   H674      1.0  0.15679  0.31283  0.79853  1.0000
  H   H675      1.0  0.15802  0.30957  0.83345  1.0000
  H   H676      1.0  0.13704  0.31032  0.81855  1.0000
  H   H677      1.0  0.16225  0.40070  0.85033  1.0000
  H   H678      1.0  0.17351  0.39714  0.88024  1.0000
  H   H679      1.0  0.18274  0.41932  0.86413  1.0000
  H   H680      1.0  0.24190  0.37131  0.86544  1.0000
  C   C386      1.0  0.12940  0.30084  0.54982  1.0000
  H   H681      1.0  0.11900  0.28875  0.55983  1.0000
  C   C387      1.0  0.17597  0.36073  0.59119  1.0000
  H   H682      1.0  0.02135  0.46260  0.62437  1.0000
  H   H683      1.0  0.17052  0.47768  0.73691  1.0000
  H   H684      1.0  0.17982  0.32916  0.58644  1.0000
  H   H685      1.0  0.17331  0.29675  0.54678  1.0000
  C   C388      1.0  0.13175  0.29500  0.52189  1.0000
  C   C389      1.0  0.18178  0.29838  0.56518  1.0000
  H   H686      1.0  0.11773  0.28978  0.51191  1.0000
  H   H687      1.0  0.13870  0.47379  0.74899  1.0000
  C   C390      1.0  0.20747  0.36160  0.98105  1.0000
  C   C391      1.0  0.18439  0.38193  0.75381  1.0000
  C   C392      1.0  0.22224  0.36122  0.83213  1.0000
  N   N22       1.0  0.12285  0.30871  0.72172  1.0000
  C   C393      1.0  0.14256  0.30996  0.71726  1.0000
  C   C394      1.0  0.12232  0.32784  0.71773  1.0000
  C   C395      1.0  0.11756  0.30199  0.74914  1.0000
  C   C396      1.0  0.10893  0.29502  0.70274  1.0000
  C   C397      1.0  0.11332  0.29829  0.67335  1.0000
  C   C398      1.0  0.14538  0.29112  0.71770  1.0000
  C   C399      1.0  0.09862  0.30219  0.75841  1.0000
  C   C400      1.0  0.13363  0.34320  0.73820  1.0000
  C   C401      1.0  0.13026  0.36124  0.73394  1.0000
  C   C402      1.0  0.09770  0.28429  0.65607  1.0000
  C   C403      1.0  0.16586  0.29409  0.71371  1.0000
  C   C404      1.0  0.09547  0.29649  0.78698  1.0000
  H   H688      1.0  0.15240  0.31919  0.73246  1.0000
  H   H689      1.0  0.14773  0.31679  0.69834  1.0000
  H   H690      1.0  0.12811  0.33340  0.69843  1.0000
  H   H691      1.0  0.10758  0.32699  0.71676  1.0000
  H   H692      1.0  0.12886  0.31002  0.76359  1.0000
  H   H693      1.0  0.11639  0.28727  0.75097  1.0000
  H   H694      1.0  0.10724  0.28039  0.70714  1.0000
  H   H695      1.0  0.09476  0.29532  0.70508  1.0000
  H   H696      1.0  0.12657  0.29660  0.66890  1.0000
  H   H697      1.0  0.11453  0.31248  0.66761  1.0000
  H   H698      1.0  0.14145  0.28418  0.73675  1.0000
  H   H699      1.0  0.13692  0.28145  0.70191  1.0000
  H   H700      1.0  0.08674  0.29208  0.74661  1.0000
  H   H701      1.0  0.09805  0.31626  0.75689  1.0000
  H   H702      1.0  0.12971  0.33887  0.75851  1.0000
  H   H703      1.0  0.14885  0.34652  0.73635  1.0000
  H   H704      1.0  0.11520  0.35870  0.73603  1.0000
  H   H705      1.0  0.13855  0.37204  0.74872  1.0000
  H   H706      1.0  0.13467  0.36678  0.71418  1.0000
  H   H707      1.0  0.09603  0.26971  0.66056  1.0000
  H   H708      1.0  0.15484  0.41106  0.59604  1.0000
  H   H709      1.0  0.10129  0.28680  0.63517  1.0000
  H   H710      1.0  0.16736  0.37481  0.78757  1.0000
  H   H711      1.0  0.16742  0.28039  0.71442  1.0000
  H   H712      1.0  0.17041  0.30024  0.69433  1.0000
  H   H713      1.0  0.09599  0.28247  0.78976  1.0000
  H   H714      1.0  0.10626  0.30686  0.80001  1.0000
  H   H715      1.0  0.08146  0.29584  0.79281  1.0000
  H   H716      1.0  0.22472  0.34834  0.55105  1.0000
  S   S93       1.0  0.03070  0.48651  0.71153  1.0000
  H   H717      1.0  0.18567  0.27697  0.92851  1.0000
  H   H718      1.0  0.17630  0.45123  0.61862  1.0000
  H   H719      1.0  0.17239  0.29592  0.58205  1.0000
  H   H720      1.0  0.16611  0.38179  0.57606  1.0000
  C   C405      1.0  0.21407  0.35460  0.59941  1.0000
  C   C406      1.0  0.10372  0.24704  0.51097  1.0000
  C   C407      1.0  0.21141  0.47939  0.54516  1.0000
  H   H721      1.0  0.13337  0.41424  0.58815  1.0000
  N   N23       1.0  0.29971  0.46826  0.84955  1.0000
  C   C408      1.0  0.07722  0.46461  0.77018  1.0000
  H   H722      1.0  0.22602  0.35010  0.59671  1.0000
  H   H723      1.0  0.21886  0.38752  0.83701  1.0000
  C   C409      1.0  0.24216  0.37042  0.84377  1.0000
  C   C410      1.0  0.20768  0.47644  0.60359  1.0000
  H   H724      1.0  0.20837  0.35465  0.53212  1.0000
  H   H725      1.0  0.01676  0.48254  0.55433  1.0000
  H   H726      1.0  0.11061  0.28869  0.96521  1.0000
  H   H727      1.0  0.26869  0.48063  0.86197  1.0000
  H   H728      1.0  0.15419  0.34354  0.80663  1.0000
  S   S94       1.0  0.98609  0.46232  0.48782  1.0000
  H   H729      1.0  0.21351  0.45205  0.61626  1.0000
  H   H730      1.0  0.15949  0.31552  0.51872  1.0000
  H   H731      1.0  0.13662  0.28328  0.52338  1.0000
  C   C411      1.0  0.15041  0.48692  0.75530  1.0000
  H   H732      1.0  0.10066  0.25593  0.97433  1.0000
  C   C412      1.0  0.22169  0.37398  0.61385  1.0000
  H   H733      1.0  0.08832  0.24940  0.73706  1.0000
  C   C413      1.0  0.19275  0.36594  0.57265  1.0000
  H   H734      1.0  0.04421  0.48314  0.54615  1.0000
  H   H735      1.0  0.25044  0.36195  0.83852  1.0000
  C   C414      1.0  0.19995  0.34025  0.97880  1.0000
  C   C415      1.0  0.17036  0.27378  0.92839  1.0000
  H   H736      1.0  0.18089  0.38871  0.60549  1.0000
  H   H737      1.0  0.24789  0.37038  0.52036  1.0000
  H   H738      1.0  0.14582  0.42355  0.61865  1.0000
  H   H739      1.0  0.18727  0.34006  0.80812  1.0000
  N   N24       1.0  0.16914  0.31060  0.98078  1.0000
  C   C416      1.0  0.17841  0.37089  0.77893  1.0000
  C   C417      1.0  0.14614  0.31158  0.50727  1.0000
  H   H740      1.0  0.14938  0.27549  0.95373  1.0000
  C   C418      1.0  0.17822  0.44921  0.59747  1.0000
  H   H741      1.0  0.20116  0.25718  0.53253  1.0000
  H   H742      1.0  0.19566  0.37873  0.74432  1.0000
  H   H743      1.0  0.17255  0.35580  0.77331  1.0000
  C   C419      1.0  0.16961  0.37696  0.59513  1.0000
  H   H744      1.0  0.07489  0.48709  0.52804  1.0000
  H   H745      1.0  0.98169  0.46383  0.55469  1.0000
  C   C420      1.0  0.09313  0.48088  0.78385  1.0000
  H   H746      1.0  0.99380  0.47079  0.63478  1.0000
  H   H747      1.0  0.11520  0.31455  0.48574  1.0000
  H   H748      1.0  0.14290  0.30534  0.56121  1.0000
  H   H749      1.0  0.18795  0.28754  0.56527  1.0000
  H   H750      1.0  0.30505  0.48098  0.88837  1.0000
  C   C421      1.0  0.00090  0.44920  0.65412  1.0000
  H   H751      1.0  0.20571  0.31944  0.54921  1.0000
  C   C422      1.0  0.17420  0.30195  0.95709  1.0000
  C   C423      1.0  0.11554  0.24494  0.53099  1.0000
  H   H752      1.0  0.15015  0.44814  0.58523  1.0000
  C   C424      1.0  0.21663  0.35754  0.55100  1.0000
  H   H753      1.0  0.22563  0.38832  0.55217  1.0000
  C   C425      1.0  0.10488  0.24869  0.77144  1.0000
  H   H754      1.0  0.20326  0.47815  0.62368  1.0000
  H   H755      1.0  0.18511  0.43896  0.59685  1.0000
  H   H756      1.0  0.15969  0.43591  0.56331  1.0000
  H   H757      1.0  0.17233  0.37831  0.73969  1.0000
  C   C426      1.0  0.16824  0.48275  0.75644  1.0000
  H   H758      1.0  0.17376  0.33626  0.95976  1.0000
  C   C427      1.0  0.24179  0.38104  0.52413  1.0000
  H   H759      1.0  0.08418  0.28588  0.65906  1.0000
  C   C428      1.0  0.23490  0.37434  0.63679  1.0000
  H   H760      1.0  0.22944  0.38553  0.60083  1.0000
  C   C429      1.0  0.27616  0.48883  0.90194  1.0000
  C   C430      1.0  0.00160  0.48884  0.73879  1.0000
  S   S95       1.0  0.10912  0.47926  0.69864  1.0000
  C   C431      1.0  0.21640  0.47274  0.51918  1.0000
  H   H761      1.0  0.09176  0.25032  0.51599  1.0000
  H   H762      1.0  0.27660  0.45007  0.76211  1.0000
  H   H763      1.0  0.99288  0.43713  0.64103  1.0000
  H   H764      1.0  0.21615  0.34679  0.83981  1.0000
  C   C432      1.0  0.23175  0.37762  0.55013  1.0000
  H   H765      1.0  0.18437  0.33160  0.49806  1.0000
  Fe  Fe45      1.0  0.12905  0.24693  0.59910  1.0000
  C   C433      1.0  0.29714  0.48128  0.87001  1.0000
  H   H766      1.0  0.15701  0.37244  0.60739  1.0000
  H   H767      1.0  0.11201  0.47749  0.75550  1.0000
  C   C434      1.0  0.16488  0.28040  0.95401  1.0000
  N   N25       1.0  0.20350  0.35319  0.57363  1.0000
  H   H768      1.0  0.22223  0.46179  0.52251  1.0000
  H   H769      1.0  0.28502  0.47456  0.77135  1.0000
  C   C435      1.0  0.99205  0.46417  0.65429  1.0000
  H   H770      1.0  0.18375  0.45789  0.54532  1.0000
  N   N26       1.0  0.19072  0.46735  0.58562  1.0000
  C   C436      1.0  0.19620  0.46297  0.55897  1.0000
  C   C437      1.0  0.28820  0.45632  0.80187  1.0000
  C   C438      1.0  0.29371  0.44879  0.86059  1.0000
  H   H771      1.0  0.28330  0.48543  0.91910  1.0000
  H   H772      1.0  0.11811  0.44673  0.70176  1.0000
  Fe  Fe46      1.0  0.11102  0.25249  0.84924  1.0000
  C   C439      1.0  0.98141  0.45827  0.89965  1.0000
  H   H773      1.0  0.11397  0.46873  0.78689  1.0000
  Fe  Fe47      1.0  0.07533  0.25184  0.87533  1.0000
  H   H774      1.0  0.20514  0.33654  0.96036  1.0000
  H   H775      1.0  0.07772  0.45100  0.77606  1.0000
  C   C440      1.0  0.16187  0.48643  0.67590  1.0000
  H   H776      1.0  0.24696  0.46849  0.62691  1.0000
  H   H777      1.0  0.16662  0.28067  0.91144  1.0000
  C   C441      1.0  0.11312  0.24483  0.72638  1.0000
  H   H778      1.0  0.22715  0.48469  0.50942  1.0000
  C   C442      1.0  0.14563  0.48995  0.68115  1.0000
  C   C443      1.0  0.10734  0.24499  0.48450  1.0000
  Fe  Fe48      1.0  0.12769  0.24518  0.65988  1.0000
  N   N27       1.0  0.98585  0.47860  0.89338  1.0000
  H   H779      1.0  0.30270  0.45922  0.79579  1.0000
  C   C444      1.0  0.17241  0.48518  0.60785  1.0000
  H   H780      1.0  0.99004  0.45260  0.88775  1.0000
  C   C445      1.0  0.12084  0.24611  0.78097  1.0000
  C   C446      1.0  0.98395  0.45398  0.92873  1.0000
  H   H781      1.0  0.01524  0.48302  0.89265  1.0000
  H   H782      1.0  0.06166  0.25829  0.80549  1.0000
  H   H783      1.0  0.22295  0.36728  0.97941  1.0000
  C   C447      1.0  0.18975  0.24810  0.54494  1.0000
  S   S96       1.0  0.21456  0.41905  0.49101  1.0000
  H   H784      1.0  0.24650  0.49021  0.61504  1.0000
  H   H785      1.0  0.23364  0.47962  0.64379  1.0000
  S   S97       1.0  0.04435  0.24480  0.86262  1.0000
  H   H786      1.0  0.21609  0.49093  0.59735  1.0000
  H   H787      1.0  0.03635  0.24723  0.80466  1.0000
  H   H788      1.0  0.18724  0.36294  0.48497  1.0000
  C   C448      1.0  0.00611  0.48954  0.90165  1.0000
  H   H789      1.0  0.99848  0.48870  0.58815  1.0000
  H   H790      1.0  0.00815  0.48892  0.92316  1.0000
  H   H791      1.0  0.14918  0.48990  0.58832  1.0000
  H   H792      1.0  0.20632  0.49072  0.54092  1.0000
  Fe  Fe49      1.0  0.05705  0.56167  0.44862  1.0000
  S   S98       1.0  0.07511  0.54514  0.44494  1.0000
  C   C449      1.0  0.12045  0.51453  0.29606  1.0000
  Fe  Fe50      1.0  0.09141  0.59948  0.44554  1.0000
  S   S99       1.0  0.11141  0.58460  0.44163  1.0000
  H   H793      1.0  0.14371  0.52574  0.34918  1.0000
  Fe  Fe51      1.0  0.08951  0.56510  0.41312  1.0000
  S   S100      1.0  0.09153  0.54919  0.37599  1.0000
  H   H794      1.0  0.17139  0.58176  0.24142  1.0000
  S   S101      1.0  0.11773  0.56651  0.00814  1.0000
  S   S102      1.0  0.07031  0.58084  0.41545  1.0000
  C   C450      1.0  0.13981  0.54395  0.31838  1.0000
  Fe  Fe52      1.0  0.09583  0.54615  0.16242  1.0000
  H   H795      1.0  0.98160  0.55025  0.32942  1.0000
  S   S103      1.0  0.09030  0.56067  0.12598  1.0000
  Fe  Fe53      1.0  0.10222  0.55252  0.22302  1.0000
  S   S104      1.0  0.09568  0.52218  0.22940  1.0000
  S   S105      1.0  0.10977  0.57340  0.25750  1.0000
  Fe  Fe54      1.0  0.11367  0.52353  0.19484  1.0000
  C   C451      1.0  0.20890  0.72393  0.37567  1.0000
  Fe  Fe55      1.0  0.07201  0.51692  0.20010  1.0000
  H   H796      1.0  0.04663  0.52526  0.37445  1.0000
  S   S106      1.0  0.12136  0.55457  0.18953  1.0000
  S   S107      1.0  0.07755  0.54730  0.19565  1.0000
  S   S108      1.0  0.16418  0.70895  0.41687  1.0000
  H   H797      1.0  0.09594  0.63961  0.02480  1.0000
  C   C452      1.0  0.13592  0.53502  0.34578  1.0000
  H   H798      1.0  0.01114  0.52244  0.40328  1.0000
  C   C453      1.0  0.16595  0.65635  0.00319  1.0000
  H   H799      1.0  0.16316  0.63819  0.43747  1.0000
  H   H800      1.0  0.31164  0.50624  0.00438  1.0000
  H   H801      1.0  0.15709  0.60956  0.07501  1.0000
  H   H802      1.0  0.17928  0.65442  0.00747  1.0000
  C   C454      1.0  0.99890  0.51938  0.23205  1.0000
  C   C455      1.0  0.01445  0.53021  0.21781  1.0000
  C   C456      1.0  0.02790  0.52307  0.21074  1.0000
  H   H803      1.0  0.01740  0.51680  0.29136  1.0000
  H   H804      1.0  0.01611  0.54420  0.21214  1.0000
  H   H805      1.0  0.03954  0.53144  0.19931  1.0000
  C   C457      1.0  0.11792  0.65270  0.44154  1.0000
  C   C458      1.0  0.13158  0.65308  0.42374  1.0000
  C   C459      1.0  0.14560  0.67035  0.41667  1.0000
  C   C460      1.0  0.14629  0.68756  0.42723  1.0000
  C   C461      1.0  0.13275  0.68715  0.44522  1.0000
  H   H806      1.0  0.03863  0.51419  0.02286  1.0000
  H   H807      1.0  0.13122  0.64010  0.41519  1.0000
  H   H808      1.0  0.15596  0.67039  0.40278  1.0000
  H   H809      1.0  0.06412  0.55910  0.26700  1.0000
  H   H810      1.0  0.17021  0.50838  0.14560  1.0000
  C   C462      1.0  0.10982  0.56478  0.04075  1.0000
  C   C463      1.0  0.11628  0.55509  0.05928  1.0000
  C   C464      1.0  0.11045  0.55359  0.08542  1.0000
  C   C465      1.0  0.09836  0.56213  0.09345  1.0000
  C   C466      1.0  0.09226  0.57219  0.07505  1.0000
  C   C467      1.0  0.09783  0.57341  0.04883  1.0000
  H   H811      1.0  0.12571  0.54851  0.05330  1.0000
  H   H812      1.0  0.11535  0.54590  0.09936  1.0000
  H   H813      1.0  0.08312  0.57907  0.08113  1.0000
  H   H814      1.0  0.09300  0.58116  0.03493  1.0000
  C   C468      1.0  0.09645  0.55656  0.34327  1.0000
  C   C469      1.0  0.10685  0.57520  0.33702  1.0000
  C   C470      1.0  0.11078  0.58019  0.31068  1.0000
  C   C471      1.0  0.10434  0.56665  0.29035  1.0000
  C   C472      1.0  0.09392  0.54805  0.29663  1.0000
  C   C473      1.0  0.09019  0.54302  0.32295  1.0000
  H   H815      1.0  0.11202  0.58572  0.35249  1.0000
  H   H816      1.0  0.11890  0.59462  0.30604  1.0000
  H   H817      1.0  0.08885  0.53753  0.28118  1.0000
  H   H818      1.0  0.08232  0.52853  0.32759  1.0000
  C   C474      1.0  0.13986  0.54163  0.27087  1.0000
  C   C475      1.0  0.99498  0.51494  0.46222  1.0000
  H   H819      1.0  0.00537  0.52097  0.06631  1.0000
  H   H820      1.0  0.06203  0.59605  0.36332  1.0000
  H   H821      1.0  0.03597  0.57604  0.03897  1.0000
  H   H822      1.0  0.04358  0.57471  0.00624  1.0000
  H   H823      1.0  0.07288  0.57699  0.31697  1.0000
  H   H824      1.0  0.02297  0.50656  0.40708  1.0000
  C   C476      1.0  0.15237  0.73807  0.33051  1.0000
  C   C477      1.0  0.15906  0.56831  0.24182  1.0000
  S   S109      1.0  0.98314  0.52949  0.24196  1.0000
  H   H825      1.0  0.12684  0.54449  0.26816  1.0000
  H   H826      1.0  0.06260  0.56543  0.34624  1.0000
  C   C478      1.0  0.15655  0.56084  0.26959  1.0000
  H   H827      1.0  0.06825  0.58295  0.27700  1.0000
  C   C479      1.0  0.17128  0.69371  0.34112  1.0000
  H   H828      1.0  0.03157  0.50622  0.14013  1.0000
  H   H829      1.0  0.04028  0.49937  0.04794  1.0000
  H   H830      1.0  0.18656  0.70483  0.01536  1.0000
  H   H831      1.0  0.12962  0.55077  0.31493  1.0000
  C   C480      1.0  0.99667  0.50115  0.23883  1.0000
  C   C481      1.0  0.16307  0.51938  0.27344  1.0000
  H   H832      1.0  0.14005  0.53321  0.25333  1.0000
  H   H833      1.0  0.15893  0.61466  0.44762  1.0000
  H   H834      1.0  0.16178  0.72026  0.30705  1.0000
  H   H835      1.0  0.19331  0.73123  0.28707  1.0000
  H   H836      1.0  0.01062  0.57636  0.31571  1.0000
  H   H837      1.0  0.04711  0.54517  0.01534  1.0000
  H   H838      1.0  0.15702  0.55807  0.36800  1.0000
  H   H839      1.0  0.16133  0.55820  0.22805  1.0000
  H   H840      1.0  0.02928  0.55388  0.25978  1.0000
  H   H841      1.0  0.13505  0.61064  0.99650  1.0000
  H   H842      1.0  0.00630  0.53864  0.28974  1.0000
  H   H843      1.0  0.07547  0.58097  0.23102  1.0000
  H   H844      1.0  0.05194  0.56455  0.22378  1.0000
  H   H845      1.0  0.15388  0.57134  0.28214  1.0000
  H   H846      1.0  0.07392  0.60725  0.33426  1.0000
  H   H847      1.0  0.12066  0.52671  0.34757  1.0000
  H   H848      1.0  0.15798  0.73062  0.03125  1.0000
  H   H849      1.0  0.26246  0.49325  0.39249  1.0000
  H   H850      1.0  0.98144  0.50252  0.40711  1.0000
  H   H851      1.0  0.21762  0.49592  0.02357  1.0000
  C   C482      1.0  0.01023  0.49403  0.23181  1.0000
  N   N28       1.0  0.14924  0.63939  0.01120  1.0000
  H   H852      1.0  0.04903  0.52991  0.14192  1.0000
  C   C483      1.0  0.13200  0.64418  0.00846  1.0000
  H   H853      1.0  0.15866  0.69673  0.33608  1.0000
  C   C484      1.0  0.15261  0.63524  0.03924  1.0000
  C   C485      1.0  0.13771  0.61749  0.05084  1.0000
  H   H854      1.0  0.14609  0.72794  0.34625  1.0000
  H   H855      1.0  0.05671  0.51589  0.28935  1.0000
  C   C486      1.0  0.11292  0.62787  0.00278  1.0000
  C   C487      1.0  0.09668  0.63452  0.00464  1.0000
  C   C488      1.0  0.14440  0.61288  0.07728  1.0000
  H   H856      1.0  0.17078  0.53215  0.26231  1.0000
  N   N29       1.0  0.19698  0.72576  0.32799  1.0000
  C   C489      1.0  0.03392  0.52125  0.13806  1.0000
  H   H857      1.0  0.18325  0.74075  0.03543  1.0000
  H   H858      1.0  0.13061  0.65197  0.02621  1.0000
  H   H859      1.0  0.22314  0.72615  0.41342  1.0000
  S   S110      1.0  0.04299  0.49600  0.20951  1.0000
  H   H860      1.0  0.19840  0.69838  0.32460  1.0000
  H   H861      1.0  0.16657  0.63424  0.04163  1.0000
  H   H862      1.0  0.15336  0.64706  0.05239  1.0000
  H   H863      1.0  0.13451  0.60502  0.03793  1.0000
  H   H864      1.0  0.12464  0.61986  0.05426  1.0000
  H   H865      1.0  0.15195  0.50989  0.26009  1.0000
  H   H866      1.0  0.05447  0.55128  0.06462  1.0000
  H   H867      1.0  0.21736  0.71537  0.28992  1.0000
  C   C490      1.0  0.98326  0.55514  0.30893  1.0000
  H   H868      1.0  0.14647  0.57091  0.23524  1.0000
  H   H869      1.0  0.11029  0.61605  0.01616  1.0000
  H   H870      1.0  0.08322  0.62274  0.99965  1.0000
  H   H871      1.0  0.16988  0.55990  0.27657  1.0000
  S   S111      1.0  0.09952  0.63138  0.45103  1.0000
  H   H872      1.0  0.14757  0.62476  0.09142  1.0000
  H   H873      1.0  0.13321  0.60039  0.08538  1.0000
  H   H874      1.0  0.13341  0.65377  0.99172  1.0000
  H   H875      1.0  0.02361  0.54346  0.02090  1.0000
  H   H876      1.0  0.07152  0.52284  0.06339  1.0000
  S   S112      1.0  0.02529  0.54701  0.45166  1.0000
  C   C491      1.0  0.02770  0.52496  0.11078  1.0000
  H   H877      1.0  0.04030  0.51875  0.46640  1.0000
  H   H878      1.0  0.16532  0.65817  0.98163  1.0000
  C   C492      1.0  0.03831  0.54958  0.02857  1.0000
  H   H879      1.0  0.04562  0.53840  0.40318  1.0000
  C   C493      1.0  0.06548  0.52383  0.04381  1.0000
  C   C494      1.0  0.07381  0.51459  0.02383  1.0000
  H   H880      1.0  0.05609  0.58837  0.23387  1.0000
  H   H881      1.0  0.98368  0.52635  0.17475  1.0000
  H   H882      1.0  0.17662  0.72731  0.35567  1.0000
  H   H883      1.0  0.18182  0.70159  0.30281  1.0000
  C   C495      1.0  0.14162  0.55001  0.36755  1.0000
  H   H884      1.0  0.10824  0.66987  0.46596  1.0000
  C   C496      1.0  0.03983  0.54359  0.05720  1.0000
  H   H885      1.0  0.03458  0.57687  0.27144  1.0000
  H   H886      1.0  0.19869  0.72909  0.38429  1.0000
  H   H887      1.0  0.23730  0.72604  0.38595  1.0000
  H   H888      1.0  0.16591  0.61137  0.01296  1.0000
  H   H889      1.0  0.03121  0.54927  0.06901  1.0000
  C   C497      1.0  0.98602  0.49622  0.46996  1.0000
  C   C498      1.0  0.04377  0.51434  0.04333  1.0000
  H   H890      1.0  0.17782  0.62867  0.98915  1.0000
  H   H891      1.0  0.17236  0.74131  0.00414  1.0000
  C   C499      1.0  0.01938  0.51562  0.39301  1.0000
  H   H892      1.0  0.03466  0.49722  0.28152  1.0000
  H   H893      1.0  0.00470  0.56911  0.28198  1.0000
  H   H894      1.0  0.13761  0.54327  0.38678  1.0000
  H   H895      1.0  0.13297  0.70016  0.45354  1.0000
  C   C500      1.0  0.04481  0.57085  0.02689  1.0000
  H   H896      1.0  0.05970  0.57777  0.03361  1.0000
  H   H897      1.0  0.16168  0.66809  0.31710  1.0000
  H   H898      1.0  0.06873  0.51592  0.00371  1.0000
  H   H899      1.0  0.16205  0.51099  0.11297  1.0000
  S   S113      1.0  0.08911  0.51512  0.16567  1.0000
  C   C501      1.0  0.15990  0.49360  0.20093  1.0000
  C   C502      1.0  0.11869  0.66988  0.45224  1.0000
  H   H900      1.0  0.15369  0.66510  0.35023  1.0000
  H   H901      1.0  0.07016  0.53877  0.03874  1.0000
  C   C503      1.0  0.16448  0.61703  0.99349  1.0000
  C   C504      1.0  0.16835  0.67537  0.01647  1.0000
  H   H902      1.0  0.19365  0.51563  0.09591  1.0000
  H   H903      1.0  0.17463  0.69733  0.36210  1.0000
  H   H904      1.0  0.06997  0.49954  0.02816  1.0000
  H   H905      1.0  0.17081  0.67505  0.03790  1.0000
  H   H906      1.0  0.15382  0.55563  0.31994  1.0000
  H   H907      1.0  0.20343  0.70844  0.37631  1.0000
  C   C505      1.0  0.16806  0.73398  0.31753  1.0000
  C   C506      1.0  0.00852  0.50397  0.36870  1.0000
  C   C507      1.0  0.03771  0.53111  0.38527  1.0000
  H   H908      1.0  0.02996  0.54002  0.11015  1.0000
  C   C508      1.0  0.17460  0.51489  0.12631  1.0000
  C   C509      1.0  0.17097  0.74233  0.02558  1.0000
  H   H909      1.0  0.25145  0.49950  0.11899  1.0000
  H   H910      1.0  0.00984  0.51478  0.03461  1.0000
  C   C510      1.0  0.16581  0.67259  0.33780  1.0000
  H   H911      1.0  0.03501  0.52802  0.26773  1.0000
  H   H912      1.0  0.05402  0.52852  0.09380  1.0000
  H   H913      1.0  0.17766  0.66862  0.34400  1.0000
  C   C511      1.0  0.22514  0.73844  0.26336  1.0000
  C   C512      1.0  0.01304  0.51358  0.05570  1.0000
  H   H914      1.0  0.09840  0.64591  0.99058  1.0000
  C   C513      1.0  0.03893  0.51991  0.08928  1.0000
  H   H915      1.0  0.20161  0.51337  0.12876  1.0000
  H   H916      1.0  0.00812  0.51373  0.35304  1.0000
  H   H917      1.0  0.17710  0.63450  0.46401  1.0000
  H   H918      1.0  0.13431  0.55980  0.36465  1.0000
  H   H919      1.0  0.08519  0.59692  0.35700  1.0000
  N   N30       1.0  0.03388  0.52284  0.06140  1.0000
  H   H920      1.0  0.22340  0.72430  0.34073  1.0000
  H   H921      1.0  0.11270  0.62249  0.98255  1.0000
  H   H922      1.0  0.01245  0.51654  0.10845  1.0000
  N   N31       1.0  0.03451  0.55738  0.30164  1.0000
  C   C514      1.0  0.04115  0.54166  0.30681  1.0000
  C   C515      1.0  0.04318  0.57321  0.32157  1.0000
  C   C516      1.0  0.01351  0.54968  0.30481  1.0000
  C   C517      1.0  0.03844  0.56452  0.27415  1.0000
  C   C518      1.0  0.05894  0.57062  0.26535  1.0000
  C   C519      1.0  0.03266  0.52411  0.28852  1.0000
  C   C520      1.0  0.00398  0.56408  0.30236  1.0000
  C   C521      1.0  0.06317  0.57673  0.33256  1.0000
  C   C522      1.0  0.07151  0.59539  0.34769  1.0000
  C   C523      1.0  0.06061  0.57647  0.23675  1.0000
  C   C524      1.0  0.04163  0.50994  0.29407  1.0000
  C   C525      1.0  0.18772  0.70481  0.32320  1.0000
  H   H923      1.0  0.03816  0.53690  0.32727  1.0000
  H   H924      1.0  0.05658  0.54654  0.30546  1.0000
  H   H925      1.0  0.04336  0.58663  0.31352  1.0000
  H   H926      1.0  0.03448  0.57075  0.33931  1.0000
  H   H927      1.0  0.00996  0.54282  0.32412  1.0000
  C   C526      1.0  0.18511  0.69141  0.00563  1.0000
  C   C527      1.0  0.11681  0.49904  0.27481  1.0000
  C   C528      1.0  0.15521  0.52449  0.29886  1.0000
  C   C529      1.0  0.02602  0.50506  0.21795  1.0000
  S   S114      1.0  0.07592  0.58164  0.47910  1.0000
  C   C530      1.0  0.18937  0.50854  0.11482  1.0000
  S   S115      1.0  0.13867  0.51511  0.20310  1.0000
  H   H928      1.0  0.03482  0.54162  0.37320  1.0000
  C   C531      1.0  0.21337  0.73053  0.34726  1.0000
  H   H929      1.0  0.18052  0.53034  0.12921  1.0000
  N   N32       1.0  0.13907  0.53094  0.29568  1.0000
  H   H930      1.0  0.98667  0.52305  0.45727  1.0000
  H   H931      1.0  0.18303  0.69273  0.98425  1.0000
  C   C532      1.0  0.01462  0.52327  0.46099  1.0000
  C   C533      1.0  0.14766  0.62338  0.99281  1.0000
  H   H932      1.0  0.15120  0.51220  0.31192  1.0000
  H   H933      1.0  0.10879  0.51966  0.29480  1.0000
  H   H934      1.0  0.20726  0.50014  0.06779  1.0000
  C   C534      1.0  0.02520  0.51258  0.46726  1.0000
  H   H935      1.0  0.02567  0.52499  0.15301  1.0000
  H   H936      1.0  0.16746  0.53546  0.30911  1.0000
  H   H937      1.0  0.16944  0.49638  0.28965  1.0000
  H   H938      1.0  0.08935  0.52166  0.02461  1.0000
  C   C535      1.0  0.18355  0.73418  0.33768  1.0000
  C   C536      1.0  0.20462  0.73513  0.30255  1.0000
  H   H939      1.0  0.19829  0.68906  0.00921  1.0000
  H   H940      1.0  0.11884  0.50704  0.31484  1.0000
  H   H941      1.0  0.04016  0.50581  0.31490  1.0000
  C   C537      1.0  0.22088  0.73070  0.29093  1.0000
  H   H942      1.0  0.21946  0.50079  0.11073  1.0000
  H   H943      1.0  0.01751  0.49685  0.36109  1.0000
  H   H944      1.0  0.03756  0.50518  0.09206  1.0000
  H   H945      1.0  0.99389  0.49994  0.17773  1.0000
  H   H946      1.0  0.98642  0.51821  0.14253  1.0000
  H   H947      1.0  0.15587  0.67894  0.01300  1.0000
  H   H948      1.0  0.21284  0.73165  0.24985  1.0000
  H   H949      1.0  0.99067  0.52787  0.37222  1.0000
  C   C538      1.0  0.22665  0.73119  0.39320  1.0000
  H   H950      1.0  0.14118  0.73688  0.31570  1.0000
  H   H951      1.0  0.23720  0.73564  0.25576  1.0000
  H   H952      1.0  0.11930  0.50479  0.25490  1.0000
  C   C539      1.0  0.14379  0.49600  0.19107  1.0000
  H   H953      1.0  0.18857  0.51911  0.29260  1.0000
  Fe  Fe56      1.0  0.17518  0.74092  0.42563  1.0000
  C   C540      1.0  0.16285  0.62936  0.45463  1.0000
  H   H954      1.0  0.13478  0.62605  0.46317  1.0000
  C   C541      1.0  0.17675  0.50989  0.27979  1.0000
  Fe  Fe57      1.0  0.09477  0.56598  0.47364  1.0000
  H   H955      1.0  0.23395  0.73747  0.30304  1.0000
  H   H956      1.0  0.18258  0.50692  0.26141  1.0000
  H   H957      1.0  0.16878  0.50335  0.21558  1.0000
  C   C542      1.0  0.01624  0.49388  0.47505  1.0000
  C   C543      1.0  0.14853  0.63065  0.47387  1.0000
  H   H958      1.0  0.29328  0.49559  0.37724  1.0000
  H   H959      1.0  0.15251  0.64554  0.47990  1.0000
  C   C544      1.0  0.21517  0.72424  0.86310  1.0000
  S   S116      1.0  0.08218  0.54757  0.94821  1.0000
  H   H960      1.0  0.01219  0.52734  0.78341  1.0000
  Fe  Fe58      1.0  0.09632  0.60127  0.93771  1.0000
  S   S117      1.0  0.11704  0.58710  0.93668  1.0000
  Fe  Fe59      1.0  0.09875  0.50312  0.69339  1.0000
  Fe  Fe60      1.0  0.09477  0.56421  0.91251  1.0000
  S   S118      1.0  0.09687  0.54560  0.87841  1.0000
  C   C545      1.0  0.18789  0.70998  0.81975  1.0000
  S   S119      1.0  0.10780  0.55533  0.50727  1.0000
  S   S120      1.0  0.07479  0.57910  0.91156  1.0000
  C   C546      1.0  0.15170  0.71451  0.86767  1.0000
  Fe  Fe61      1.0  0.08717  0.53106  0.66224  1.0000
  H   H961      1.0  0.13392  0.58500  0.58265  1.0000
  S   S121      1.0  0.08356  0.54746  0.62662  1.0000
  Fe  Fe62      1.0  0.09539  0.53678  0.72215  1.0000
  S   S122      1.0  0.08329  0.50604  0.72888  1.0000
  S   S123      1.0  0.10512  0.55881  0.75527  1.0000
  H   H962      1.0  0.11691  0.51647  0.76488  1.0000
  H   H963      1.0  0.15524  0.52862  0.81485  1.0000
  Fe  Fe63      1.0  0.06022  0.50486  0.70084  1.0000
  H   H964      1.0  0.03133  0.56397  0.75946  1.0000
  S   S124      1.0  0.11268  0.53447  0.68804  1.0000
  S   S125      1.0  0.07121  0.53585  0.69615  1.0000
  S   S126      1.0  0.17266  0.71237  0.93560  1.0000
  H   H965      1.0  0.19542  0.67052  0.54879  1.0000
  C   C547      1.0  0.02408  0.53495  0.52844  1.0000
  H   H966      1.0  0.19324  0.67991  0.84197  1.0000
  C   C548      1.0  0.04721  0.54920  0.77929  1.0000
  C   C549      1.0  0.12963  0.51312  0.76347  1.0000
  H   H967      1.0  0.03717  0.53503  0.60986  1.0000
  C   C550      1.0  0.15077  0.60388  0.55304  1.0000
  C   C551      1.0  0.02922  0.53072  0.55655  1.0000
  H   H968      1.0  0.15803  0.61563  0.56708  1.0000
  H   H969      1.0  0.15460  0.70926  0.82682  1.0000
  H   H970      1.0  0.06229  0.55141  0.78211  1.0000
  H   H971      1.0  0.17029  0.51081  0.59336  1.0000
  C   C552      1.0  0.12725  0.50517  0.81074  1.0000
  H   H972      1.0  0.16003  0.53060  0.76731  1.0000
  C   C553      1.0  0.12236  0.65477  0.93284  1.0000
  C   C554      1.0  0.14095  0.65597  0.93386  1.0000
  C   C555      1.0  0.15603  0.67367  0.93457  1.0000
  C   C556      1.0  0.15287  0.69048  0.93412  1.0000
  C   C557      1.0  0.13431  0.68929  0.93266  1.0000
  H   H973      1.0  0.15717  0.58508  0.57939  1.0000
  H   H974      1.0  0.14370  0.64327  0.93373  1.0000
  H   H975      1.0  0.17029  0.67433  0.93534  1.0000
  H   H976      1.0  0.13102  0.51568  0.86331  1.0000
  C   C558      1.0  0.04612  0.56603  0.76404  1.0000
  C   C559      1.0  0.10000  0.55240  0.53998  1.0000
  C   C560      1.0  0.08903  0.56164  0.54983  1.0000
  C   C561      1.0  0.08416  0.55990  0.57637  1.0000
  C   C562      1.0  0.09002  0.54880  0.59333  1.0000
  C   C563      1.0  0.10069  0.53928  0.58337  1.0000
  C   C564      1.0  0.10575  0.54119  0.55689  1.0000
  H   H977      1.0  0.08457  0.57038  0.53715  1.0000
  H   H978      1.0  0.07591  0.56734  0.58390  1.0000
  H   H979      1.0  0.10530  0.53069  0.59616  1.0000
  H   H980      1.0  0.11432  0.53405  0.54951  1.0000
  C   C565      1.0  0.09910  0.54973  0.84426  1.0000
  C   C566      1.0  0.10587  0.56778  0.83413  1.0000
  C   C567      1.0  0.10767  0.57029  0.80687  1.0000
  C   C568      1.0  0.10249  0.55484  0.78941  1.0000
  C   C569      1.0  0.09556  0.53680  0.79953  1.0000
  C   C570      1.0  0.09420  0.53429  0.82681  1.0000
  H   H981      1.0  0.10986  0.57980  0.84730  1.0000
  H   H982      1.0  0.11308  0.58432  0.79925  1.0000
  H   H983      1.0  0.09137  0.52481  0.78634  1.0000
  H   H984      1.0  0.08918  0.52029  0.83449  1.0000
  H   H985      1.0  0.15959  0.50623  0.78802  1.0000
  H   H986      1.0  0.05923  0.52642  0.54341  1.0000
  C   C571      1.0  0.04037  0.49725  0.82246  1.0000
  H   H987      1.0  0.15559  0.50050  0.62047  1.0000
  H   H988      1.0  0.14920  0.53628  0.72323  1.0000
  S   S127      1.0  0.10258  0.63284  0.93227  1.0000
  C   C572      1.0  0.02010  0.51659  0.71548  1.0000
  C   C573      1.0  0.14069  0.52647  0.85056  1.0000
  H   H989      1.0  0.19512  0.68592  0.87661  1.0000
  C   C574      1.0  0.14486  0.58577  0.56843  1.0000
  H   H990      1.0  0.07120  0.57058  0.74171  1.0000
  H   H991      1.0  0.00558  0.51693  0.82959  1.0000
  H   H992      1.0  0.15930  0.55742  0.74297  1.0000
  H   H993      1.0  0.13426  0.54646  0.73849  1.0000
  C   C575      1.0  0.16121  0.49736  0.60200  1.0000
  H   H994      1.0  0.20005  0.70570  0.82048  1.0000
  H   H995      1.0  0.05559  0.58069  0.72784  1.0000
  N   N33       1.0  0.13749  0.62219  0.52116  1.0000
  H   H996      1.0  0.04035  0.51609  0.91833  1.0000
  C   C576      1.0  0.13353  0.60646  0.54031  1.0000
  C   C577      1.0  0.11883  0.62230  0.51163  1.0000
  C   C578      1.0  0.14878  0.64097  0.53410  1.0000
  C   C579      1.0  0.17049  0.64796  0.53317  1.0000
  C   C580      1.0  0.02089  0.55328  0.52794  1.0000
  C   C581      1.0  0.10548  0.62369  0.53307  1.0000
  H   H997      1.0  0.99342  0.50570  0.56848  1.0000
  C   C582      1.0  0.01433  0.49573  0.55222  1.0000
  C   C583      1.0  0.17995  0.66558  0.55027  1.0000
  C   C584      1.0  0.18527  0.67962  0.85979  1.0000
  C   C585      1.0  0.08982  0.62907  0.52149  1.0000
  C   C586      1.0  0.03574  0.51901  0.89874  1.0000
  H   H998      1.0  0.14553  0.62711  0.97233  1.0000
  H   H999      1.0  0.12553  0.60844  0.55708  1.0000
  H   H1000     1.0  0.11102  0.60951  0.49950  1.0000
  C   C587      1.0  0.14689  0.61792  0.49777  1.0000
  H   H1001     1.0  0.11759  0.51283  0.81019  1.0000
  H   H1002     1.0  0.14511  0.65228  0.52511  1.0000
  H   H1003     1.0  0.14496  0.64091  0.55499  1.0000
  H   H1004     1.0  0.17520  0.65162  0.51290  1.0000
  H   H1005     1.0  0.17583  0.63731  0.53987  1.0000
  C   C588      1.0  0.02073  0.52613  0.96642  1.0000
  H   H1006     1.0  0.01491  0.51587  0.60750  1.0000
  H   H1007     1.0  0.11316  0.63431  0.54836  1.0000
  H   H1008     1.0  0.09870  0.60990  0.54247  1.0000
  H   H1009     1.0  0.02183  0.50562  0.79874  1.0000
  C   C589      1.0  0.99185  0.50118  0.98000  1.0000
  H   H1010     1.0  0.16109  0.61845  0.50307  1.0000
  H   H1011     1.0  0.02849  0.51982  0.65222  1.0000
  H   H1012     1.0  0.05370  0.51853  0.59018  1.0000
  H   H1013     1.0  0.17551  0.67697  0.54367  1.0000
  C   C590      1.0  0.00803  0.52528  0.72327  1.0000
  H   H1014     1.0  0.21632  0.71059  0.85968  1.0000
  C   C591      1.0  0.16417  0.71672  0.84357  1.0000
  H   H1015     1.0  0.99405  0.52879  0.96886  1.0000
  H   H1016     1.0  0.14547  0.50373  0.67822  1.0000
  H   H1017     1.0  0.08025  0.62949  0.53713  1.0000
  N   N34       1.0  0.03729  0.54519  0.80496  1.0000
  Fe  Fe64      1.0  0.10221  0.57172  0.97231  1.0000
  C   C592      1.0  0.04263  0.53083  0.81909  1.0000
  C   C593      1.0  0.01640  0.53811  0.79934  1.0000
  C   C594      1.0  0.04279  0.56258  0.82208  1.0000
  C   C595      1.0  0.06404  0.57275  0.82854  1.0000
  S   S128      1.0  0.03200  0.54931  0.95513  1.0000
  C   C596      1.0  0.00374  0.52972  0.82287  1.0000
  C   C597      1.0  0.03687  0.51151  0.80483  1.0000
  H   H1018     1.0  0.15375  0.53447  0.86208  1.0000
  C   C598      1.0  0.06823  0.59168  0.84211  1.0000
  C   C599      1.0  0.99238  0.51555  0.73812  1.0000
  N   N35       1.0  0.18008  0.70989  0.84657  1.0000
  H   H1019     1.0  0.17400  0.59733  0.97398  1.0000
  C   C600      1.0  0.11923  0.67159  0.93208  1.0000
  H   H1020     1.0  0.05812  0.53603  0.82218  1.0000
  H   H1021     1.0  0.03703  0.52875  0.83917  1.0000
  H   H1022     1.0  0.04134  0.53678  0.76581  1.0000
  C   C601      1.0  0.20646  0.72973  0.78251  1.0000
  H   H1023     1.0  0.03739  0.57278  0.81339  1.0000
  H   H1024     1.0  0.03607  0.55919  0.84136  1.0000
  H   H1025     1.0  0.07251  0.57536  0.81076  1.0000
  H   H1026     1.0  0.06879  0.56421  0.84212  1.0000
  H   H1027     1.0  0.13933  0.57349  0.55480  1.0000
  C   C602      1.0  0.98299  0.52412  0.81543  1.0000
  C   C603      1.0  0.03821  0.51098  0.58779  1.0000
  C   C604      1.0  0.03377  0.51299  0.63687  1.0000
  H   H1028     1.0  0.10496  0.67093  0.93111  1.0000
  H   H1029     1.0  0.04527  0.51286  0.78705  1.0000
  C   C605      1.0  0.14642  0.53221  0.76534  1.0000
  H   H1030     1.0  0.24183  0.73424  0.88473  1.0000
  H   H1031     1.0  0.04901  0.51686  0.64064  1.0000
  C   C606      1.0  0.00151  0.51956  0.97146  1.0000
  H   H1032     1.0  0.08337  0.59815  0.84782  1.0000
  H   H1033     1.0  0.06487  0.60128  0.82872  1.0000
  C   C607      1.0  0.04715  0.51268  0.54179  1.0000
  H   H1034     1.0  0.01242  0.54955  0.79162  1.0000
  H   H1035     1.0  0.16581  0.68966  0.87585  1.0000
  H   H1036     1.0  0.04203  0.51126  0.52102  1.0000
  H   H1037     1.0  0.19033  0.71808  0.88636  1.0000
  S   S129      1.0  0.07437  0.49959  0.66555  1.0000
  H   H1038     1.0  0.05534  0.50236  0.82901  1.0000
  C   C608      1.0  0.17180  0.69003  0.85617  1.0000
  H   H1039     1.0  0.04212  0.51307  0.88363  1.0000
  H   H1040     1.0  0.04942  0.55579  0.72536  1.0000
  H   H1041     1.0  0.16632  0.65788  0.88425  1.0000
  C   C609      1.0  0.14536  0.51735  0.82648  1.0000
  S   S130      1.0  0.08257  0.58678  0.97447  1.0000
  C   C610      1.0  0.01433  0.51075  0.89572  1.0000
  H   H1042     1.0  0.00700  0.53987  0.83950  1.0000
  H   H1043     1.0  0.16458  0.65171  0.84976  1.0000
  H   H1044     1.0  0.04235  0.54259  0.56301  1.0000
  H   H1045     1.0  0.17730  0.69929  0.80670  1.0000
  C   C611      1.0  0.16180  0.60160  0.97304  1.0000
  H   H1046     1.0  0.03561  0.53655  0.51493  1.0000
  H   H1047     1.0  0.03145  0.49460  0.83986  1.0000
  H   H1048     1.0  0.14899  0.58909  0.97681  1.0000
  H   H1049     1.0  0.01734  0.55599  0.50760  1.0000
  H   H1050     1.0  0.01821  0.53164  0.56933  1.0000
  H   H1051     1.0  0.16079  0.60316  0.53836  1.0000
  N   N36       1.0  0.03185  0.51246  0.55991  1.0000
  H   H1052     1.0  0.05292  0.57931  0.77542  1.0000
  H   H1053     1.0  0.14287  0.69953  0.87072  1.0000
  H   H1054     1.0  0.02650  0.49762  0.63835  1.0000
  H   H1055     1.0  0.03381  0.56518  0.53467  1.0000
  H   H1056     1.0  0.01054  0.53939  0.71720  1.0000
  C   C612      1.0  0.13827  0.72464  0.86399  1.0000
  H   H1057     1.0  0.01103  0.52369  0.52077  1.0000
  H   H1058     1.0  0.16045  0.72022  0.88557  1.0000
  H   H1059     1.0  0.18436  0.65198  0.86949  1.0000
  C   C613      1.0  0.05622  0.56836  0.73819  1.0000
  H   H1060     1.0  0.00910  0.55246  0.54056  1.0000
  H   H1061     1.0  0.05996  0.58995  0.86007  1.0000
  H   H1062     1.0  0.15227  0.49759  0.74010  1.0000
  H   H1063     1.0  0.06352  0.49982  0.56480  1.0000
  C   C614      1.0  0.17441  0.65906  0.86620  1.0000
  Fe  Fe65      1.0  0.06334  0.56343  0.94833  1.0000
  H   H1064     1.0  0.21975  0.72862  0.78945  1.0000
  H   H1065     1.0  0.16974  0.73186  0.83874  1.0000
  H   H1066     1.0  0.14471  0.54049  0.78224  1.0000
  H   H1067     1.0  0.08153  0.61868  0.50624  1.0000
  H   H1068     1.0  0.03164  0.52388  0.70307  1.0000
  H   H1069     1.0  0.12439  0.59295  0.53063  1.0000
  C   C615      1.0  0.14730  0.54373  0.74095  1.0000
  C   C616      1.0  0.19456  0.72253  0.86608  1.0000
  H   H1070     1.0  0.13152  0.70198  0.93220  1.0000
  C   C617      1.0  0.01679  0.49828  0.72298  1.0000
  H   H1071     1.0  0.12876  0.71882  0.84666  1.0000
  H   H1072     1.0  0.15993  0.68137  0.84282  1.0000
  H   H1073     1.0  0.00883  0.51833  0.90976  1.0000
  H   H1074     1.0  0.12109  0.63432  0.49847  1.0000
  C   C618      1.0  0.03017  0.51949  0.60988  1.0000
  H   H1075     1.0  0.17636  0.66258  0.57110  1.0000
  H   H1076     1.0  0.98529  0.49407  0.85827  1.0000
  H   H1077     1.0  0.12961  0.72276  0.88159  1.0000
  H   H1078     1.0  0.13402  0.53634  0.84459  1.0000
  C   C619      1.0  0.99660  0.49289  0.56791  1.0000
  H   H1079     1.0  0.19518  0.73715  0.86523  1.0000
  N   N37       1.0  0.12942  0.49873  0.78340  1.0000
  H   H1080     1.0  0.13902  0.60320  0.49071  1.0000
  H   H1081     1.0  0.16779  0.74024  0.62806  1.0000
  H   H1082     1.0  0.06084  0.49405  0.50496  1.0000
  H   H1083     1.0  0.04110  0.53445  0.89654  1.0000
  C   C620      1.0  0.14670  0.49405  0.78227  1.0000
  H   H1084     1.0  0.15282  0.50837  0.83338  1.0000
  C   C621      1.0  0.98932  0.49741  0.74623  1.0000
  H   H1085     1.0  0.01092  0.51373  0.87561  1.0000
  H   H1086     1.0  0.09575  0.64312  0.51255  1.0000
  H   H1087     1.0  0.22163  0.72495  0.90502  1.0000
  C   C622      1.0  0.02055  0.49565  0.97864  1.0000
  H   H1088     1.0  0.08011  0.51159  0.52298  1.0000
  H   H1089     1.0  0.30310  0.49605  0.86335  1.0000
  H   H1090     1.0  0.19052  0.49432  0.57524  1.0000
  H   H1091     1.0  0.17416  0.49764  0.66896  1.0000
  C   C623      1.0  0.03026  0.51411  0.97021  1.0000
  H   H1092     1.0  0.98982  0.49832  0.66804  1.0000
  H   H1093     1.0  0.18065  0.49559  0.76180  1.0000
  C   C624      1.0  0.22726  0.73331  0.88738  1.0000
  H   H1094     1.0  0.01077  0.49600  0.53106  1.0000
  H   H1095     1.0  0.16065  0.60664  0.95304  1.0000
  H   H1096     1.0  0.03545  0.49610  0.59233  1.0000
  H   H1097     1.0  0.09163  0.49402  0.77833  1.0000
  C   C625      1.0  0.06860  0.49758  0.52413  1.0000
  H   H1098     1.0  0.14616  0.73986  0.86146  1.0000
  H   H1099     1.0  0.12868  0.50730  0.74323  1.0000
  C   C626      1.0  0.19397  0.72900  0.80555  1.0000
  H   H1100     1.0  0.19909  0.71823  0.76814  1.0000
  H   H1101     1.0  0.18142  0.73121  0.79773  1.0000
  H   H1102     1.0  0.28302  0.50401  0.89790  1.0000
  H   H1103     1.0  0.04509  0.51900  0.96665  1.0000
  C   C627      1.0  0.05534  0.49737  0.54600  1.0000
  H   H1104     1.0  0.22155  0.73316  0.84624  1.0000
  H   H1105     1.0  0.18377  0.49299  0.62225  1.0000
  H   H1106     1.0  0.20175  0.74085  0.81908  1.0000
  H   H1107     1.0  0.12049  0.49285  0.82336  1.0000
  Fe  Fe66      1.0  0.23945  0.80130  0.15302  1.0000
  S   S131      1.0  0.25513  0.83186  0.14666  1.0000
  S   S132      1.0  0.23196  0.77976  0.11933  1.0000
  Fe  Fe67      1.0  0.23489  0.80788  0.21271  1.0000
  S   S133      1.0  0.25053  0.83906  0.20917  1.0000
  S   S134      1.0  0.21655  0.79484  0.24775  1.0000
  Fe  Fe68      1.0  0.23324  0.83572  0.17170  1.0000
  S   S135      1.0  0.21746  0.85388  0.15874  1.0000
  Fe  Fe69      1.0  0.27104  0.83191  0.18448  1.0000
  S   S136      1.0  0.30329  0.84069  0.18581  1.0000
  S   S137      1.0  0.21698  0.80520  0.17624  1.0000
  S   S138      1.0  0.25596  0.80065  0.18985  1.0000
  Fe  Fe70      1.0  0.11478  0.83896  0.12245  1.0000
  S   S139      1.0  0.13185  0.86963  0.12359  1.0000
  S   S140      1.0  0.13020  0.81929  0.12753  1.0000
  Fe  Fe71      1.0  0.07772  0.84445  0.11434  1.0000
  S   S141      1.0  0.09330  0.87595  0.11528  1.0000
  S   S142      1.0  0.04591  0.83680  0.10735  1.0000
  Fe  Fe72      1.0  0.11393  0.87091  0.08891  1.0000
  S   S143      1.0  0.12999  0.89015  0.05632  1.0000
  Fe  Fe73      1.0  0.10992  0.87179  0.14987  1.0000
  S   S144      1.0  0.12112  0.89296  0.18403  1.0000
  S   S145      1.0  0.09783  0.83980  0.08615  1.0000
  S   S146      1.0  0.09334  0.84072  0.15070  1.0000
  Fe  Fe74      1.0  0.20684  0.77386  0.40083  1.0000
  S   S147      1.0  0.17629  0.75926  0.39096  1.0000
  S   S148      1.0  0.22909  0.78271  0.36937  1.0000
  Fe  Fe75      1.0  0.19919  0.77500  0.46071  1.0000
  S   S149      1.0  0.16790  0.76013  0.45338  1.0000
  S   S150      1.0  0.22184  0.79787  0.99940  1.0000
  H   H1108     1.0  0.19369  0.86914  0.13161  1.0000
  Fe  Fe76      1.0  0.17231  0.77972  0.41935  1.0000
  S   S151      1.0  0.15530  0.79702  0.40772  1.0000
  C   C628      1.0  0.01192  0.86974  0.05497  1.0000
  S   S152      1.0  0.20286  0.79501  0.42755  1.0000
  Fe  Fe77      1.0  0.14574  0.90158  0.34101  1.0000
  S   S153      1.0  0.17702  0.91756  0.34347  1.0000
  S   S154      1.0  0.12811  0.88257  0.30742  1.0000
  Fe  Fe78      1.0  0.14192  0.90673  0.40156  1.0000
  S   S155      1.0  0.17280  0.92366  0.40712  1.0000
  S   S156      1.0  0.12022  0.89238  0.43249  1.0000
  Fe  Fe79      1.0  0.17069  0.93832  0.36948  1.0000
  S   S157      1.0  0.17930  0.97013  0.36221  1.0000
  Fe  Fe80      1.0  0.17621  0.90164  0.38069  1.0000
  S   S158      1.0  0.19411  0.88542  0.39331  1.0000
  S   S159      1.0  0.13907  0.92246  0.36561  1.0000
  S   S160      1.0  0.14567  0.88471  0.37652  1.0000
  H   H1109     1.0  0.09998  0.82562  0.39163  1.0000
  C   C629      1.0  0.18336  0.86075  0.39639  1.0000
  C   C630      1.0  0.16595  0.85020  0.38437  1.0000
  C   C631      1.0  0.15753  0.83075  0.38803  1.0000
  C   C632      1.0  0.16666  0.82146  0.40302  1.0000
  C   C633      1.0  0.18431  0.83193  0.41444  1.0000
  C   C634      1.0  0.19253  0.85146  0.41128  1.0000
  H   H1110     1.0  0.15905  0.85687  0.37186  1.0000
  H   H1111     1.0  0.14396  0.82280  0.37891  1.0000
  H   H1112     1.0  0.19142  0.82514  0.42640  1.0000
  H   H1113     1.0  0.20598  0.85943  0.42068  1.0000
  C   C635      1.0  0.02477  0.81644  0.10266  1.0000
  C   C636      1.0  0.00761  0.81875  0.09883  1.0000
  C   C637      1.0  0.28642  0.81606  0.06577  1.0000
  H   H1114     1.0  0.14974  0.87266  0.46111  1.0000
  C   C638      1.0  0.00738  0.78265  0.09871  1.0000
  C   C639      1.0  0.02450  0.79823  0.10266  1.0000
  H   H1115     1.0  0.00754  0.83271  0.09901  1.0000
  C   C640      1.0  0.99026  0.78495  0.09462  1.0000
  H   H1116     1.0  0.00742  0.76866  0.09871  1.0000
  H   H1117     1.0  0.03748  0.79612  0.10565  1.0000
  C   C641      1.0  0.12823  0.88936  0.02149  1.0000
  C   C642      1.0  0.14095  0.90423  0.00753  1.0000
  H   H1118     1.0  0.17326  0.89842  0.45447  1.0000
  C   C643      1.0  0.12452  0.89172  0.46676  1.0000
  C   C644      1.0  0.13821  0.79111  0.07437  1.0000
  C   C645      1.0  0.11449  0.87466  0.00746  1.0000
  H   H1119     1.0  0.15177  0.91559  0.01812  1.0000
  H   H1120     1.0  0.25606  0.83507  0.31560  1.0000
  H   H1121     1.0  0.23913  0.86271  0.29486  1.0000
  H   H1122     1.0  0.10515  0.86277  0.01777  1.0000
  C   C646      1.0  0.12313  0.88964  0.21821  1.0000
  C   C647      1.0  0.11337  0.87250  0.22992  1.0000
  C   C648      1.0  0.11514  0.87063  0.25719  1.0000
  C   C649      1.0  0.12670  0.88583  0.27311  1.0000
  C   C650      1.0  0.13655  0.90295  0.26140  1.0000
  C   C651      1.0  0.13469  0.90484  0.23413  1.0000
  H   H1123     1.0  0.10433  0.86073  0.21797  1.0000
  H   H1124     1.0  0.10746  0.85731  0.26600  1.0000
  H   H1125     1.0  0.14546  0.91479  0.27333  1.0000
  H   H1126     1.0  0.14223  0.91819  0.22529  1.0000
  C   C652      1.0  0.22462  0.79231  0.03253  1.0000
  C   C653      1.0  0.22037  0.77394  0.04064  1.0000
  C   C654      1.0  0.22279  0.77033  0.06723  1.0000
  C   C655      1.0  0.22941  0.78500  0.08602  1.0000
  C   C656      1.0  0.23385  0.80338  0.07785  1.0000
  C   C657      1.0  0.23154  0.80699  0.05126  1.0000
  H   H1127     1.0  0.21542  0.76257  0.02637  1.0000
  H   H1128     1.0  0.16955  0.88474  0.99483  1.0000
  H   H1129     1.0  0.23900  0.81482  0.09200  1.0000
  H   H1130     1.0  0.23505  0.82127  0.04516  1.0000
  C   C658      1.0  0.22061  0.79180  0.28150  1.0000
  C   C659      1.0  0.23818  0.79348  0.29176  1.0000
  C   C660      1.0  0.24054  0.79078  0.31870  1.0000
  C   C661      1.0  0.22546  0.78649  0.33574  1.0000
  C   C662      1.0  0.20796  0.78504  0.32552  1.0000
  C   C663      1.0  0.20553  0.78748  0.29854  1.0000
  H   H1131     1.0  0.24990  0.79675  0.27893  1.0000
  H   H1132     1.0  0.25414  0.79195  0.32639  1.0000
  H   H1133     1.0  0.19627  0.78199  0.33837  1.0000
  H   H1134     1.0  0.19189  0.78618  0.29086  1.0000
  C   C664      1.0  0.19348  0.84364  0.14854  1.0000
  C   C665      1.0  0.18226  0.82503  0.15388  1.0000
  C   C666      1.0  0.16295  0.81779  0.14734  1.0000
  C   C667      1.0  0.15464  0.82895  0.13502  1.0000
  C   C668      1.0  0.16594  0.84738  0.12896  1.0000
  C   C669      1.0  0.18519  0.85474  0.13594  1.0000
  H   H1135     1.0  0.18824  0.81636  0.16385  1.0000
  H   H1136     1.0  0.15429  0.80360  0.15236  1.0000
  H   H1137     1.0  0.15995  0.85604  0.11888  1.0000
  H   H1138     1.0  0.21340  0.91738  0.47733  1.0000
  H   H1139     1.0  0.00906  0.80577  0.19642  1.0000
  H   H1140     1.0  0.11670  0.84446  0.37397  1.0000
  H   H1141     1.0  0.24082  0.82178  0.39746  1.0000
  H   H1142     1.0  0.02582  0.83945  0.18972  1.0000
  H   H1143     1.0  0.07639  0.89317  0.33165  1.0000
  C   C670      1.0  0.21190  0.83717  0.32234  1.0000
  H   H1144     1.0  0.16963  0.78150  0.15732  1.0000
  H   H1145     1.0  0.23847  0.83002  0.34941  1.0000
  H   H1146     1.0  0.30157  0.79340  0.10736  1.0000
  H   H1147     1.0  0.07502  0.83664  0.38131  1.0000
  H   H1148     1.0  0.00987  0.80072  0.16219  1.0000
  H   H1149     1.0  0.26897  0.78437  0.14506  1.0000
  C   C671      1.0  0.13959  0.90571  0.47979  1.0000
  H   H1150     1.0  0.98240  0.77634  0.17246  1.0000
  H   H1151     1.0  0.23675  0.82979  0.29217  1.0000
  H   H1152     1.0  0.02489  0.83579  0.15467  1.0000
  H   H1153     1.0  0.09905  0.89237  0.33005  1.0000
  C   C672      1.0  0.28303  0.78505  0.13953  1.0000
  H   H1154     1.0  0.19145  0.74902  0.34386  1.0000
  H   H1155     1.0  0.05378  0.88711  0.98475  1.0000
  H   H1156     1.0  0.15588  0.87227  0.03121  1.0000
  H   H1157     1.0  0.15953  0.86023  0.44061  1.0000
  H   H1158     1.0  0.07812  0.89061  0.99120  1.0000
  C   C673      1.0  0.29268  0.82540  0.03911  1.0000
  H   H1159     1.0  0.29359  0.79318  0.15478  1.0000
  H   H1160     1.0  0.18309  0.76308  0.07064  1.0000
  H   H1161     1.0  0.00097  0.86498  0.03906  1.0000
  H   H1162     1.0  0.18516  0.76615  0.11199  1.0000
  H   H1163     1.0  0.29396  0.84017  0.03914  1.0000
  H   H1164     1.0  0.21949  0.75607  0.07330  1.0000
  H   H1165     1.0  0.21416  0.82828  0.37929  1.0000
  H   H1166     1.0  0.25793  0.85466  0.26316  1.0000
  H   H1167     1.0  0.22255  0.84218  0.98180  1.0000
  H   H1168     1.0  0.06666  0.86321  0.45186  1.0000
  H   H1169     1.0  0.15735  0.76177  0.02286  1.0000
  H   H1170     1.0  0.25758  0.86854  0.31908  1.0000
  C   C674      1.0  0.20334  0.83209  0.07565  1.0000
  H   H1171     1.0  0.26610  0.83615  0.26987  1.0000
  H   H1172     1.0  0.26486  0.81635  0.02027  1.0000
  H   H1173     1.0  0.99095  0.82753  0.17921  1.0000
  H   H1174     1.0  0.20676  0.91206  0.44303  1.0000
  H   H1175     1.0  0.03025  0.83121  0.37977  1.0000
  H   H1176     1.0  0.08699  0.87959  0.39816  1.0000
  H   H1177     1.0  0.23193  0.83321  0.42158  1.0000
  H   H1178     1.0  0.21597  0.90533  0.31687  1.0000
  C   C675      1.0  0.26351  0.84811  0.27873  1.0000
  H   H1179     1.0  0.27421  0.81354  0.11530  1.0000
  H   H1180     1.0  0.09303  0.89471  0.28081  1.0000
  N   N38       1.0  0.16666  0.78040  0.07355  1.0000
  C   C676      1.0  0.16341  0.77774  0.10254  1.0000
  C   C677      1.0  0.14957  0.78147  0.05954  1.0000
  H   H1181     1.0  0.11343  0.78041  0.04830  1.0000
  C   C678      1.0  0.18402  0.79738  0.06827  1.0000
  C   C679      1.0  0.18392  0.81651  0.07729  1.0000
  C   C680      1.0  0.21629  0.89535  0.33217  1.0000
  H   H1182     1.0  0.06513  0.82937  0.00705  1.0000
  H   H1183     1.0  0.15997  0.83484  0.01730  1.0000
  C   C681      1.0  0.17377  0.77086  0.14751  1.0000
  H   H1184     1.0  0.19436  0.83598  0.35657  1.0000
  H   H1185     1.0  0.19129  0.87753  0.45252  1.0000
  H   H1186     1.0  0.16016  0.78924  0.11136  1.0000
  H   H1187     1.0  0.15072  0.76483  0.10561  1.0000
  H   H1188     1.0  0.17881  0.80588  0.33232  1.0000
  H   H1189     1.0  0.19077  0.88187  0.00232  1.0000
  H   H1190     1.0  0.19176  0.79046  0.12074  1.0000
  H   H1191     1.0  0.09044  0.92043  0.05858  1.0000
  H   H1192     1.0  0.17963  0.81626  0.09780  1.0000
  H   H1193     1.0  0.10047  0.90710  0.03946  1.0000
  H   H1194     1.0  0.18673  0.79857  0.04696  1.0000
  C   C682      1.0  0.15446  0.86076  0.46075  1.0000
  H   H1195     1.0  0.21242  0.82300  0.32329  1.0000
  H   H1196     1.0  0.30630  0.82468  0.03405  1.0000
  C   C683      1.0  0.18398  0.89936  0.46985  1.0000
  H   H1197     1.0  0.09124  0.91368  0.36464  1.0000
  H   H1198     1.0  0.28680  0.80189  0.06355  1.0000
  C   C684      1.0  0.19889  0.85039  0.98726  1.0000
  H   H1199     1.0  0.29389  0.84957  0.13491  1.0000
  H   H1200     1.0  0.18560  0.76955  0.15901  1.0000
  H   H1201     1.0  0.28379  0.82140  0.99806  1.0000
  H   H1202     1.0  0.25298  0.85328  0.35968  1.0000
  H   H1203     1.0  0.06031  0.89371  0.05991  1.0000
  C   C685      1.0  0.23812  0.84379  0.35528  1.0000
  H   H1204     1.0  0.03855  0.82665  0.17520  1.0000
  C   C686      1.0  0.03539  0.86424  0.02512  1.0000
  N   N39       1.0  0.16342  0.86038  0.21823  1.0000
  C   C687      1.0  0.14464  0.84478  0.22228  1.0000
  C   C688      1.0  0.16860  0.87397  0.24134  1.0000
  C   C689      1.0  0.16145  0.87082  0.19415  1.0000
  C   C690      1.0  0.17857  0.85297  0.21342  1.0000
  C   C691      1.0  0.18310  0.84183  0.23574  1.0000
  C   C692      1.0  0.13648  0.83059  0.19918  1.0000
  C   C693      1.0  0.17809  0.88952  0.18881  1.0000
  C   C694      1.0  0.16277  0.86573  0.26889  1.0000
  C   C695      1.0  0.17220  0.88038  0.29043  1.0000
  C   C696      1.0  0.19660  0.83287  0.22688  1.0000
  C   C697      1.0  0.11761  0.81549  0.20589  1.0000
  C   C698      1.0  0.17417  0.89860  0.16412  1.0000
  H   H1205     1.0  0.13408  0.85089  0.22657  1.0000
  H   H1206     1.0  0.14505  0.83647  0.23967  1.0000
  H   H1207     1.0  0.18399  0.88238  0.24197  1.0000
  H   H1208     1.0  0.16176  0.88428  0.23898  1.0000
  H   H1209     1.0  0.14855  0.87402  0.19514  1.0000
  H   H1210     1.0  0.15961  0.86196  0.17624  1.0000
  H   H1211     1.0  0.17519  0.84417  0.19532  1.0000
  H   H1212     1.0  0.19208  0.86461  0.20948  1.0000
  H   H1213     1.0  0.17035  0.83042  0.24253  1.0000
  H   H1214     1.0  0.19021  0.85148  0.25236  1.0000
  H   H1215     1.0  0.13392  0.83760  0.18152  1.0000
  H   H1216     1.0  0.14605  0.82345  0.19439  1.0000
  H   H1217     1.0  0.19122  0.88721  0.18574  1.0000
  H   H1218     1.0  0.18053  0.89978  0.20518  1.0000
  H   H1219     1.0  0.14736  0.86120  0.27073  1.0000
  H   H1220     1.0  0.16631  0.85342  0.27280  1.0000
  H   H1221     1.0  0.16739  0.87438  0.30986  1.0000
  H   H1222     1.0  0.18765  0.88483  0.28998  1.0000
  H   H1223     1.0  0.16850  0.89283  0.28787  1.0000
  H   H1224     1.0  0.20959  0.84358  0.21919  1.0000
  H   H1225     1.0  0.20056  0.82598  0.24367  1.0000
  H   H1226     1.0  0.18982  0.82204  0.21141  1.0000
  H   H1227     1.0  0.11206  0.80571  0.18886  1.0000
  H   H1228     1.0  0.11921  0.80738  0.22296  1.0000
  H   H1229     1.0  0.10731  0.82191  0.21027  1.0000
  H   H1230     1.0  0.18608  0.91204  0.16088  1.0000
  H   H1231     1.0  0.17248  0.88931  0.14674  1.0000
  H   H1232     1.0  0.16124  0.90156  0.16612  1.0000
  H   H1233     1.0  0.27706  0.85852  0.28660  1.0000
  H   H1234     1.0  0.15359  0.78848  0.04040  1.0000
  H   H1235     1.0  0.02300  0.85083  0.37664  1.0000
  C   C699      1.0  0.00845  0.81103  0.17646  1.0000
  C   C700      1.0  0.02542  0.82937  0.17386  1.0000
  C   C701      1.0  0.22796  0.86936  0.34274  1.0000
  H   H1236     1.0  0.20176  0.88790  0.33879  1.0000
  H   H1237     1.0  0.07107  0.85768  0.99288  1.0000
  H   H1238     1.0  0.19028  0.84857  0.32957  1.0000
  C   C702      1.0  0.22786  0.84023  0.38149  1.0000
  H   H1239     1.0  0.21006  0.83933  0.30109  1.0000
  H   H1240     1.0  0.21349  0.87233  0.30614  1.0000
  H   H1241     1.0  0.06063  0.85251  0.40050  1.0000
  H   H1242     1.0  0.09483  0.85525  0.39712  1.0000
  H   H1243     1.0  0.20848  0.83312  0.05538  1.0000
  H   H1244     1.0  0.09416  0.90089  0.07287  1.0000
  C   C703      1.0  0.17868  0.87749  0.98803  1.0000
  H   H1245     1.0  0.28057  0.84271  0.09186  1.0000
  C   C704      1.0  0.10164  0.83517  0.37497  1.0000
  H   H1246     1.0  0.10566  0.91978  0.40901  1.0000
  C   C705      1.0  0.08961  0.84674  0.37890  1.0000
  C   C706      1.0  0.03191  0.84510  0.38817  1.0000
  C   C707      1.0  0.05247  0.85853  0.38815  1.0000
  H   H1247     1.0  0.05342  0.87179  0.39783  1.0000
  H   H1248     1.0  0.02698  0.84311  0.40858  1.0000
  H   H1249     1.0  0.21344  0.82944  0.08930  1.0000
  C   C708      1.0  0.13639  0.84299  0.46413  1.0000
  C   C709      1.0  0.09014  0.91432  0.40634  1.0000
  H   H1250     1.0  0.09728  0.82653  0.35668  1.0000
  H   H1251     1.0  0.08570  0.92640  0.40673  1.0000
  H   H1252     1.0  0.12955  0.83741  0.42255  1.0000
  C   C710      1.0  0.20211  0.91523  0.46227  1.0000
  H   H1253     1.0  0.22018  0.98073  0.37056  1.0000
  C   C711      1.0  0.06395  0.87361  0.46453  1.0000
  H   H1254     1.0  0.07694  0.84160  0.03662  1.0000
  H   H1255     1.0  0.22527  0.90346  0.34892  1.0000
  H   H1256     1.0  0.08366  0.90507  0.42286  1.0000
  H   H1257     1.0  0.16377  0.81877  0.33421  1.0000
  H   H1258     1.0  0.22883  0.75384  0.26363  1.0000
  H   H1259     1.0  0.17524  0.81826  0.30403  1.0000
  C   C712      1.0  0.16953  0.76331  0.06316  1.0000
  C   C713      1.0  0.08969  0.88643  0.37891  1.0000
  H   H1260     1.0  0.10521  0.89186  0.37753  1.0000
  C   C714      1.0  0.12354  0.79405  0.05629  1.0000
  H   H1261     1.0  0.25336  0.84637  0.40570  1.0000
  H   H1262     1.0  0.13062  0.78216  0.09063  1.0000
  C   C715      1.0  0.19933  0.99167  0.35957  1.0000
  H   H1263     1.0  0.03638  0.86503  0.06852  1.0000
  H   H1264     1.0  0.06278  0.86128  0.30697  1.0000
  N   N40       1.0  0.29765  0.82612  0.08983  1.0000
  C   C716      1.0  0.09045  0.85908  0.35492  1.0000
  C   C717      1.0  0.05971  0.86225  0.35980  1.0000
  C   C718      1.0  0.08411  0.90371  0.38018  1.0000
  H   H1265     1.0  0.10553  0.86691  0.35077  1.0000
  H   H1266     1.0  0.05487  0.84856  0.34896  1.0000
  H   H1267     1.0  0.06876  0.89958  0.37722  1.0000
  C   C719      1.0  0.29568  0.84472  0.09306  1.0000
  H   H1268     1.0  0.00497  0.86600  0.07404  1.0000
  C   C720      1.0  0.07744  0.87156  0.30591  1.0000
  H   H1269     1.0  0.19127  0.82049  0.47480  1.0000
  C   C721      1.0  0.99050  0.80317  0.09477  1.0000
  N   N41       1.0  0.08059  0.87258  0.35682  1.0000
  H   H1270     1.0  0.08456  0.84903  0.33827  1.0000
  H   H1271     1.0  0.19793  0.84539  0.00765  1.0000
  H   H1272     1.0  0.14553  0.83563  0.06153  1.0000
  C   C722      1.0  0.24948  0.84106  0.30056  1.0000
  H   H1273     1.0  0.05178  0.87006  0.35039  1.0000
  H   H1274     1.0  0.18250  0.77241  0.02505  1.0000
  C   C723      1.0  0.17685  0.81869  0.32571  1.0000
  C   C724      1.0  0.22383  0.88130  0.32100  1.0000
  H   H1275     1.0  0.01799  0.84494  0.05394  1.0000
  C   C725      1.0  0.08386  0.88339  0.33166  1.0000
  C   C726      1.0  0.24434  0.85708  0.31196  1.0000
  C   C727      1.0  0.07039  0.89327  0.04502  1.0000
  H   H1276     1.0  0.06720  0.89943  0.02704  1.0000
  C   C728      1.0  0.06334  0.83191  0.02804  1.0000
  H   H1277     1.0  0.08666  0.86388  0.30184  1.0000
  H   H1278     1.0  0.11565  0.80087  0.06755  1.0000
  C   C729      1.0  0.07855  0.88405  0.28245  1.0000
  H   H1279     1.0  0.06910  0.80743  0.03864  1.0000
  H   H1280     1.0  0.17850  0.85580  0.02757  1.0000
  C   C730      1.0  0.16497  0.85036  0.01613  1.0000
  C   C731      1.0  0.27854  0.81511  0.01718  1.0000
  C   C732      1.0  0.06449  0.88097  0.98240  1.0000
  C   C733      1.0  0.18686  0.88060  0.47204  1.0000
  H   H1281     1.0  0.15836  0.75032  0.07029  1.0000
  H   H1282     1.0  0.16454  0.85767  0.06981  1.0000
  H   H1283     1.0  0.03517  0.83054  0.02001  1.0000
  H   H1284     1.0  0.21677  0.86628  0.35728  1.0000
  C   C734      1.0  0.23925  0.83509  0.40275  1.0000
  H   H1285     1.0  0.06864  0.89127  0.28435  1.0000
  S   S161      1.0  0.20646  0.75508  0.43464  1.0000
  H   H1286     1.0  0.05686  0.81489  0.06303  1.0000
  H   H1287     1.0  0.30215  0.85416  0.07678  1.0000
  H   H1288     1.0  0.03799  0.87892  0.02019  1.0000
  C   C735      1.0  0.04793  0.84001  0.03117  1.0000
  H   H1289     1.0  0.27634  0.80004  0.01626  1.0000
  H   H1290     1.0  0.31064  0.87932  0.20419  1.0000
  N   N42       1.0  0.05294  0.86012  0.02322  1.0000
  H   H1291     1.0  0.07488  0.87540  0.26414  1.0000
  H   H1292     1.0  0.04421  0.83838  0.05211  1.0000
  H   H1293     1.0  0.05798  0.88182  0.45212  1.0000
  H   H1294     1.0  0.14061  0.85584  0.07035  1.0000
  N   N43       1.0  0.23008  0.85170  0.33329  1.0000
  H   H1295     1.0  0.98954  0.81546  0.14894  1.0000
  H   H1296     1.0  0.20440  0.85572  0.47030  1.0000
  H   H1297     1.0  0.14720  0.80488  0.08296  1.0000
  H   H1298     1.0  0.13684  0.85053  0.02278  1.0000
  H   H1299     1.0  0.13037  0.80325  0.03988  1.0000
  H   H1300     1.0  0.20262  0.84569  0.08144  1.0000
  H   H1301     1.0  0.04449  0.80286  0.03356  1.0000
  C   C736      1.0  0.19348  0.83620  0.33501  1.0000
  C   C737      1.0  0.05807  0.81312  0.04165  1.0000
  C   C738      1.0  0.30392  0.85552  0.11917  1.0000
  H   H1302     1.0  0.03655  0.85556  0.47600  1.0000
  H   H1303     1.0  0.17425  0.82038  0.06437  1.0000
  C   C739      1.0  0.09006  0.90614  0.05459  1.0000
  H   H1304     1.0  0.19651  0.79576  0.07733  1.0000
  H   H1305     1.0  0.14936  0.91699  0.46881  1.0000
  C   C740      1.0  0.06887  0.87275  0.04087  1.0000
  C   C741      1.0  0.15050  0.85107  0.05996  1.0000
  H   H1306     1.0  0.22584  0.85282  0.38876  1.0000
  H   H1307     1.0  0.13338  0.82536  0.99253  1.0000
  H   H1308     1.0  0.10044  0.86613  0.47153  1.0000
  H   H1309     1.0  0.08248  0.87325  0.03355  1.0000
  H   H1310     1.0  0.17157  0.83925  0.46117  1.0000
  H   H1311     1.0  0.06809  0.86685  0.06084  1.0000
  C   C742      1.0  0.15129  0.85682  0.03135  1.0000
  C   C743      1.0  0.17000  0.76120  0.03294  1.0000
  H   H1312     1.0  0.10992  0.82752  0.44359  1.0000
  H   H1313     1.0  0.11924  0.85234  0.43764  1.0000
  H   H1314     1.0  0.24099  0.87862  0.35354  1.0000
  H   H1315     1.0  0.02464  0.85571  0.01022  1.0000
  H   H1316     1.0  0.23272  0.74676  0.39388  1.0000
  H   H1317     1.0  0.27138  0.81375  0.06797  1.0000
  C   C744      1.0  0.17989  0.77661  0.11963  1.0000
  H   H1318     1.0  0.13943  0.83014  0.46610  1.0000
  H   H1319     1.0  0.23702  0.88943  0.31096  1.0000
  H   H1320     1.0  0.13911  0.76710  0.05474  1.0000
  H   H1321     1.0  0.19964  0.92844  0.46060  1.0000
  C   C745      1.0  0.02590  0.86025  0.05206  1.0000
  C   C746      1.0  0.12297  0.83994  0.44051  1.0000
  H   H1322     1.0  0.16183  0.75708  0.14744  1.0000
  C   C747      1.0  0.28885  0.81441  0.11316  1.0000
  H   H1323     1.0  0.15786  0.75254  0.33886  1.0000
  C   C748      1.0  0.98986  0.81384  0.17048  1.0000
  H   H1324     1.0  0.01924  0.88521  0.05448  1.0000
  H   H1325     1.0  0.29377  0.87788  0.11234  1.0000
  H   H1326     1.0  0.27688  0.78519  0.09862  1.0000
  H   H1327     1.0  0.22136  0.74598  0.34805  1.0000
  H   H1328     1.0  0.28265  0.77054  0.13873  1.0000
  H   H1329     1.0  0.29659  0.82113  0.13158  1.0000
  H   H1330     1.0  0.07745  0.88344  0.47344  1.0000
  H   H1331     1.0  0.16953  0.99157  0.42819  1.0000
  C   C749      1.0  0.28798  0.79398  0.11278  1.0000
  H   H1332     1.0  0.17416  0.74497  0.30277  1.0000
  H   H1333     1.0  0.98405  0.81020  0.21771  1.0000
  H   H1334     1.0  0.20974  0.75066  0.30497  1.0000
  C   C750      1.0  0.05867  0.86150  0.99502  1.0000
  C   C751      1.0  0.30712  0.87623  0.11754  1.0000
  H   H1335     1.0  0.31236  0.88320  0.13689  1.0000
  H   H1336     1.0  0.20419  0.99263  0.26387  1.0000
  H   H1337     1.0  0.18782  0.98992  0.28951  1.0000
  N   N44       1.0  0.16812  0.85652  0.98811  1.0000
  H   H1338     1.0  0.20779  0.86555  0.98734  1.0000
  H   H1339     1.0  0.04717  0.85122  0.98262  1.0000
  H   H1340     1.0  0.19290  0.99247  0.42318  1.0000
  C   C752      1.0  0.17483  0.84642  0.48072  1.0000
  N   N45       1.0  0.17023  0.86384  0.48063  1.0000
  Fe  Fe81      1.0  0.23859  0.80082  0.65209  1.0000
  S   S162      1.0  0.25597  0.83149  0.64855  1.0000
  S   S163      1.0  0.22999  0.77924  0.61819  1.0000
  Fe  Fe82      1.0  0.23273  0.80502  0.71203  1.0000
  S   S164      1.0  0.24945  0.83615  0.71171  1.0000
  S   S165      1.0  0.21451  0.78936  0.74601  1.0000
  Fe  Fe83      1.0  0.23384  0.83535  0.67339  1.0000
  S   S166      1.0  0.21990  0.85532  0.66129  1.0000
  Fe  Fe84      1.0  0.27016  0.82937  0.68701  1.0000
  S   S167      1.0  0.30201  0.83799  0.69538  1.0000
  S   S168      1.0  0.21601  0.80489  0.67510  1.0000
  S   S169      1.0  0.25387  0.79799  0.68912  1.0000
  Fe  Fe85      1.0  0.11723  0.84453  0.62837  1.0000
  S   S170      1.0  0.13460  0.87506  0.62603  1.0000
  S   S171      1.0  0.13161  0.82471  0.63902  1.0000
  Fe  Fe86      1.0  0.08027  0.84985  0.61826  1.0000
  S   S172      1.0  0.09590  0.88124  0.61576  1.0000
  S   S173      1.0  0.04825  0.84121  0.61293  1.0000
  Fe  Fe87      1.0  0.11627  0.87457  0.59082  1.0000
  S   S174      1.0  0.13192  0.89234  0.55672  1.0000
  Fe  Fe88      1.0  0.11286  0.87893  0.65117  1.0000
  S   S175      1.0  0.12300  0.90103  0.68430  1.0000
  S   S176      1.0  0.10003  0.84339  0.59138  1.0000
  S   S177      1.0  0.09610  0.84818  0.65541  1.0000
  Fe  Fe89      1.0  0.21112  0.77591  0.90217  1.0000
  S   S178      1.0  0.18016  0.76056  0.89588  1.0000
  S   S179      1.0  0.23149  0.78391  0.86840  1.0000
  Fe  Fe90      1.0  0.20726  0.78044  0.96272  1.0000
  S   S180      1.0  0.17590  0.76537  0.95923  1.0000
  H   H1341     1.0  0.18468  0.88513  0.82238  1.0000
  H   H1342     1.0  0.19676  0.86994  0.63145  1.0000
  Fe  Fe91      1.0  0.17802  0.78272  0.92318  1.0000
  S   S181      1.0  0.15996  0.79950  0.91462  1.0000
  S   S182      1.0  0.21297  0.75921  0.93749  1.0000
  S   S183      1.0  0.20884  0.79854  0.92787  1.0000
  Fe  Fe92      1.0  0.14759  0.90380  0.84065  1.0000
  S   S184      1.0  0.17872  0.92029  0.84506  1.0000
  S   S185      1.0  0.13303  0.88526  0.80500  1.0000
  Fe  Fe93      1.0  0.14229  0.90676  0.90120  1.0000
  S   S186      1.0  0.17294  0.92395  0.90862  1.0000
  S   S187      1.0  0.12066  0.89230  0.93207  1.0000
  Fe  Fe94      1.0  0.17125  0.93973  0.87194  1.0000
  S   S188      1.0  0.18007  0.97184  0.86757  1.0000
  Fe  Fe95      1.0  0.17735  0.90306  0.88113  1.0000
  S   S189      1.0  0.19602  0.88700  0.89076  1.0000
  S   S190      1.0  0.13979  0.92350  0.86618  1.0000
  S   S191      1.0  0.14701  0.88579  0.87494  1.0000
  H   H1343     1.0  0.21402  0.94737  0.81468  1.0000
  C   C753      1.0  0.18579  0.86271  0.89766  1.0000
  C   C754      1.0  0.16650  0.85338  0.90108  1.0000
  C   C755      1.0  0.15880  0.83404  0.90587  1.0000
  C   C756      1.0  0.17029  0.82374  0.90773  1.0000
  C   C757      1.0  0.18959  0.83304  0.90437  1.0000
  C   C758      1.0  0.19729  0.85242  0.89967  1.0000
  H   H1344     1.0  0.15744  0.86103  0.90064  1.0000
  H   H1345     1.0  0.14386  0.82709  0.90846  1.0000
  H   H1346     1.0  0.19866  0.82539  0.90521  1.0000
  H   H1347     1.0  0.21225  0.85944  0.89730  1.0000
  C   C759      1.0  0.02767  0.82048  0.60757  1.0000
  C   C760      1.0  0.01017  0.82217  0.60465  1.0000
  H   H1348     1.0  0.12808  0.78104  0.64968  1.0000
  H   H1349     1.0  0.30684  0.84948  0.60527  1.0000
  C   C761      1.0  0.01147  0.78672  0.60114  1.0000
  C   C762      1.0  0.02822  0.80262  0.60565  1.0000
  H   H1350     1.0  0.00955  0.83590  0.60592  1.0000
  N   N46       1.0  0.04588  0.84207  0.52559  1.0000
  H   H1351     1.0  0.01207  0.77297  0.59993  1.0000
  H   H1352     1.0  0.04150  0.80103  0.60787  1.0000
  C   C763      1.0  0.12880  0.89132  0.52207  1.0000
  C   C764      1.0  0.11415  0.87690  0.50896  1.0000
  H   H1353     1.0  0.16870  0.94761  0.76067  1.0000
  H   H1354     1.0  0.20971  0.81985  0.85313  1.0000
  H   H1355     1.0  0.17852  0.83749  0.84963  1.0000
  H   H1356     1.0  0.21235  0.83250  0.49418  1.0000
  H   H1357     1.0  0.10449  0.86567  0.52008  1.0000
  H   H1358     1.0  0.17701  0.81629  0.73270  1.0000
  H   H1359     1.0  0.20782  0.91140  0.97803  1.0000
  H   H1360     1.0  0.10905  0.76184  0.63406  1.0000
  C   C765      1.0  0.12458  0.89643  0.71811  1.0000
  C   C766      1.0  0.13336  0.91150  0.73583  1.0000
  C   C767      1.0  0.13582  0.90837  0.76256  1.0000
  C   C768      1.0  0.12934  0.89013  0.77193  1.0000
  C   C769      1.0  0.12008  0.87510  0.75438  1.0000
  C   C770      1.0  0.11768  0.87822  0.72764  1.0000
  H   H1361     1.0  0.13820  0.92564  0.72881  1.0000
  H   H1362     1.0  0.14271  0.91996  0.77599  1.0000
  H   H1363     1.0  0.11474  0.86095  0.76152  1.0000
  H   H1364     1.0  0.11051  0.86654  0.71438  1.0000
  C   C771      1.0  0.21734  0.78793  0.53140  1.0000
  C   C772      1.0  0.21321  0.76994  0.54106  1.0000
  C   C773      1.0  0.21732  0.76756  0.56757  1.0000
  C   C774      1.0  0.22537  0.78306  0.58485  1.0000
  C   C775      1.0  0.22942  0.80103  0.57520  1.0000
  C   C776      1.0  0.22544  0.80341  0.54867  1.0000
  H   H1365     1.0  0.20703  0.75789  0.52806  1.0000
  C   C777      1.0  0.11269  0.87553  0.98002  1.0000
  H   H1366     1.0  0.23570  0.81310  0.58815  1.0000
  H   H1367     1.0  0.22873  0.81739  0.54145  1.0000
  C   C778      1.0  0.21966  0.78851  0.78008  1.0000
  C   C779      1.0  0.23793  0.79626  0.79078  1.0000
  C   C780      1.0  0.24126  0.79478  0.81781  1.0000
  C   C781      1.0  0.22639  0.78601  0.83465  1.0000
  C   C782      1.0  0.20807  0.77861  0.82407  1.0000
  C   C783      1.0  0.20479  0.77957  0.79691  1.0000
  H   H1368     1.0  0.24953  0.80308  0.77814  1.0000
  H   H1369     1.0  0.25551  0.80049  0.82573  1.0000
  H   H1370     1.0  0.19650  0.77170  0.83669  1.0000
  H   H1371     1.0  0.19063  0.77329  0.78884  1.0000
  C   C784      1.0  0.19534  0.84656  0.65516  1.0000
  C   C785      1.0  0.18335  0.82981  0.66591  1.0000
  C   C786      1.0  0.16385  0.82345  0.66116  1.0000
  C   C787      1.0  0.15613  0.83369  0.64549  1.0000
  C   C788      1.0  0.16809  0.85056  0.63497  1.0000
  C   C789      1.0  0.18760  0.85695  0.63980  1.0000
  H   H1372     1.0  0.18904  0.82191  0.67830  1.0000
  H   H1373     1.0  0.15471  0.81054  0.66972  1.0000
  H   H1374     1.0  0.16240  0.85848  0.62261  1.0000
  C   C790      1.0  0.11196  0.87719  0.48147  1.0000
  H   H1375     1.0  0.15980  0.81914  0.78584  1.0000
  H   H1376     1.0  0.17527  0.77339  0.54046  1.0000
  H   H1377     1.0  0.15032  0.76707  0.83145  1.0000
  H   H1378     1.0  0.01988  0.80957  0.54921  1.0000
  H   H1379     1.0  0.00037  0.78837  0.69572  1.0000
  H   H1380     1.0  0.04193  0.80307  0.52390  1.0000
  C   C791      1.0  0.13620  0.83107  0.97259  1.0000
  H   H1381     1.0  0.18931  0.80778  0.61268  1.0000
  H   H1382     1.0  0.22023  0.97862  0.77489  1.0000
  H   H1383     1.0  0.15121  0.85474  0.51266  1.0000
  H   H1384     1.0  0.06310  0.81705  0.50785  1.0000
  H   H1385     1.0  0.17300  0.98480  0.81344  1.0000
  H   H1386     1.0  0.13040  0.97080  0.80916  1.0000
  H   H1387     1.0  0.17427  0.93584  0.71852  1.0000
  H   H1388     1.0  0.14586  0.77107  0.56040  1.0000
  H   H1389     1.0  0.15677  0.94949  0.81382  1.0000
  H   H1390     1.0  0.21003  0.74332  0.77250  1.0000
  H   H1391     1.0  0.15673  0.86512  0.56001  1.0000
  H   H1392     1.0  0.00937  0.82673  0.55005  1.0000
  H   H1393     1.0  0.13860  0.76021  0.62141  1.0000
  H   H1394     1.0  0.16309  0.86620  0.81233  1.0000
  C   C792      1.0  0.21094  0.96535  0.78359  1.0000
  H   H1395     1.0  0.04849  0.87501  0.49808  1.0000
  N   N47       1.0  0.16645  0.78758  0.58964  1.0000
  H   H1396     1.0  0.18376  0.79849  0.54043  1.0000
  C   C793      1.0  0.17093  0.78553  0.53972  1.0000
  H   H1397     1.0  0.02249  0.80355  0.66108  1.0000
  H   H1398     1.0  0.02783  0.81923  0.50042  1.0000
  H   H1399     1.0  0.18842  0.75269  0.64829  1.0000
  H   H1400     1.0  0.14220  0.86062  0.98053  1.0000
  C   C794      1.0  0.14162  0.90556  0.50728  1.0000
  H   H1401     1.0  0.15130  0.79536  0.55867  1.0000
  H   H1402     1.0  0.15309  0.91672  0.51721  1.0000
  C   C795      1.0  0.05591  0.83172  0.54057  1.0000
  H   H1403     1.0  0.07221  0.85927  0.50860  1.0000
  H   H1404     1.0  0.21425  0.75361  0.57474  1.0000
  C   C796      1.0  0.11736  0.82866  0.95953  1.0000
  H   H1405     1.0  0.11562  0.78507  0.62143  1.0000
  H   H1406     1.0  0.18053  0.87741  0.57191  1.0000
  H   H1407     1.0  0.19656  0.88065  0.95378  1.0000
  H   H1408     1.0  0.04981  0.82771  0.56015  1.0000
  H   H1409     1.0  0.19976  0.85281  0.57824  1.0000
  C   C797      1.0  0.99398  0.78841  0.59811  1.0000
  C   C798      1.0  0.02668  0.82898  0.51583  1.0000
  C   C799      1.0  0.20145  0.83959  0.58327  1.0000
  C   C800      1.0  0.18695  0.85806  0.81913  1.0000
  H   H1410     1.0  0.13032  0.77084  0.84386  1.0000
  H   H1411     1.0  0.15925  0.75762  0.59167  1.0000
  C   C801      1.0  0.17931  0.77058  0.62381  1.0000
  H   H1412     1.0  0.23449  0.95801  0.79530  1.0000
  H   H1413     1.0  0.12718  0.76589  0.59358  1.0000
  H   H1414     1.0  0.19073  0.74959  0.61383  1.0000
  C   C802      1.0  0.19590  0.90735  0.96356  1.0000
  H   H1415     1.0  0.14329  0.95047  0.78500  1.0000
  N   N48       1.0  0.17160  0.87220  0.71900  1.0000
  C   C803      1.0  0.17990  0.88497  0.69651  1.0000
  C   C804      1.0  0.18355  0.86118  0.72598  1.0000
  C   C805      1.0  0.15247  0.85841  0.70987  1.0000
  C   C806      1.0  0.16904  0.88286  0.74247  1.0000
  C   C807      1.0  0.18704  0.89779  0.75504  1.0000
  C   C808      1.0  0.16839  0.89612  0.68565  1.0000
  C   C809      1.0  0.14240  0.84207  0.72854  1.0000
  C   C810      1.0  0.20512  0.87108  0.72344  1.0000
  C   C811      1.0  0.18234  0.91022  0.77469  1.0000
  C   C812      1.0  0.17862  0.90899  0.66371  1.0000
  C   C813      1.0  0.12403  0.82841  0.71596  1.0000
  H   H1416     1.0  0.18189  0.87661  0.67990  1.0000
  H   H1417     1.0  0.19413  0.89535  0.70161  1.0000
  H   H1418     1.0  0.18077  0.85598  0.74627  1.0000
  H   H1419     1.0  0.17962  0.84849  0.71300  1.0000
  H   H1420     1.0  0.15347  0.85210  0.69058  1.0000
  H   H1421     1.0  0.14265  0.86561  0.70652  1.0000
  H   H1422     1.0  0.15900  0.88958  0.73759  1.0000
  H   H1423     1.0  0.16233  0.87315  0.75847  1.0000
  H   H1424     1.0  0.19612  0.90714  0.74038  1.0000
  H   H1425     1.0  0.19502  0.89072  0.76595  1.0000
  H   H1426     1.0  0.15467  0.88657  0.67725  1.0000
  H   H1427     1.0  0.16591  0.90495  0.70112  1.0000
  H   H1428     1.0  0.13889  0.84740  0.74705  1.0000
  H   H1429     1.0  0.15111  0.83391  0.73336  1.0000
  H   H1430     1.0  0.20864  0.87384  0.70258  1.0000
  H   H1431     1.0  0.21099  0.88463  0.73419  1.0000
  H   H1432     1.0  0.17251  0.90159  0.78933  1.0000
  H   H1433     1.0  0.19534  0.91959  0.78517  1.0000
  H   H1434     1.0  0.17585  0.91894  0.76445  1.0000
  H   H1435     1.0  0.18096  0.90067  0.64731  1.0000
  H   H1436     1.0  0.16989  0.91654  0.65614  1.0000
  H   H1437     1.0  0.19230  0.91947  0.67105  1.0000
  H   H1438     1.0  0.12682  0.82188  0.69793  1.0000
  H   H1439     1.0  0.11681  0.81714  0.72983  1.0000
  H   H1440     1.0  0.11455  0.83574  0.71084  1.0000
  C   C814      1.0  0.23470  0.84090  0.83918  1.0000
  H   H1441     1.0  0.24163  0.84301  0.85892  1.0000
  H   H1442     1.0  0.23911  0.83104  0.82782  1.0000
  H   H1443     1.0  0.23944  0.85460  0.82929  1.0000
  H   H1444     1.0  0.11016  0.83591  0.97130  1.0000
  H   H1445     1.0  0.18581  0.91365  0.96952  1.0000
  H   H1446     1.0  0.14902  0.91667  0.96965  1.0000
  C   C815      1.0  0.19334  0.96694  0.79542  1.0000
  C   C816      1.0  0.04367  0.85657  0.54371  1.0000
  C   C817      1.0  0.06212  0.87283  0.55281  1.0000
  H   H1447     1.0  0.19925  0.96638  0.73385  1.0000
  C   C818      1.0  0.16107  0.78476  0.51319  1.0000
  H   H1448     1.0  0.17288  0.82717  0.59537  1.0000
  N   N49       1.0  0.18236  0.97526  0.77839  1.0000
  C   C819      1.0  0.05813  0.88631  0.57151  1.0000
  H   H1449     1.0  0.18244  0.77046  0.58231  1.0000
  H   H1450     1.0  0.11939  0.83443  0.93949  1.0000
  C   C820      1.0  0.99349  0.80630  0.59964  1.0000
  H   H1451     1.0  0.18034  0.84943  0.95397  1.0000
  H   H1452     1.0  0.20146  0.91302  0.94425  1.0000
  C   C821      1.0  0.00332  0.80325  0.69179  1.0000
  C   C822      1.0  0.01335  0.81737  0.53705  1.0000
  C   C823      1.0  0.06724  0.87973  0.95301  1.0000
  H   H1453     1.0  0.03405  0.86270  0.53483  1.0000
  H   H1454     1.0  0.03666  0.84986  0.56183  1.0000
  C   C824      1.0  0.18477  0.96540  0.72982  1.0000
  H   H1455     1.0  0.07167  0.86740  0.56333  1.0000
  C   C825      1.0  0.18407  0.80508  0.59193  1.0000
  C   C826      1.0  0.15114  0.95846  0.80253  1.0000
  H   H1456     1.0  0.06106  0.80154  0.56346  1.0000
  H   H1457     1.0  0.98587  0.79518  0.54041  1.0000
  H   H1458     1.0  0.05810  0.84015  0.48857  1.0000
  H   H1459     1.0  0.17142  0.86850  0.84593  1.0000
  H   H1460     1.0  0.21297  0.85621  0.75480  1.0000
  H   H1461     1.0  0.15619  0.79649  0.51145  1.0000
  H   H1462     1.0  0.20083  0.86430  0.82955  1.0000
  H   H1463     1.0  0.07152  0.89782  0.57763  1.0000
  H   H1464     1.0  0.04888  0.89252  0.56183  1.0000
  H   H1465     1.0  0.05136  0.87893  0.58935  1.0000
  H   H1466     1.0  0.19560  0.80315  0.58130  1.0000
  H   H1467     1.0  0.20141  0.85803  0.50465  1.0000
  H   H1468     1.0  0.14895  0.77121  0.51035  1.0000
  H   H1469     1.0  0.00443  0.81062  0.71093  1.0000
  H   H1470     1.0  0.14390  0.96965  0.83815  1.0000
  H   H1471     1.0  0.14757  0.80052  0.60231  1.0000
  H   H1472     1.0  0.14585  0.79381  0.81013  1.0000
  H   H1473     1.0  0.18062  0.85791  0.53426  1.0000
  C   C827      1.0  0.17054  0.87603  0.55525  1.0000
  C   C828      1.0  0.13479  0.77134  0.61244  1.0000
  H   H1474     1.0  0.15180  0.77818  0.86323  1.0000
  H   H1475     1.0  0.18943  0.85901  0.79788  1.0000
  C   C829      1.0  0.16702  0.97708  0.79474  1.0000
  C   C830      1.0  0.05630  0.81381  0.52703  1.0000
  C   C831      1.0  0.17147  0.77096  0.59567  1.0000
  H   H1476     1.0  0.22856  0.97195  0.81919  1.0000
  C   C832      1.0  0.18230  0.82338  0.58254  1.0000
  C   C833      1.0  0.06728  0.80501  0.54386  1.0000
  H   H1477     1.0  0.22077  0.98094  0.86368  1.0000
  C   C834      1.0  0.13697  0.96224  0.81969  1.0000
  H   H1478     1.0  0.18222  0.98707  0.93744  1.0000
  H   H1479     1.0  0.12575  0.94874  0.82485  1.0000
  C   C835      1.0  0.17582  0.87016  0.82532  1.0000
  H   H1480     1.0  0.14211  0.82244  0.96113  1.0000
  H   H1481     1.0  0.10825  0.81354  0.95802  1.0000
  C   C836      1.0  0.19731  0.83032  0.49165  1.0000
  H   H1482     1.0  0.15233  0.85585  0.95229  1.0000
  C   C837      1.0  0.15251  0.78936  0.60858  1.0000
  H   H1483     1.0  0.17001  0.77220  0.63899  1.0000
  C   C838      1.0  0.02249  0.81152  0.67927  1.0000
  C   C839      1.0  0.14585  0.77684  0.84295  1.0000
  H   H1484     1.0  0.17462  0.88294  0.94635  1.0000
  H   H1485     1.0  0.15856  0.87875  0.50639  1.0000
  H   H1486     1.0  0.06960  0.88109  0.53602  1.0000
  H   H1487     1.0  0.17131  0.83098  0.97605  1.0000
  H   H1488     1.0  0.99829  0.79282  0.51216  1.0000
  C   C840      1.0  0.05739  0.85105  0.50235  1.0000
  C   C841      1.0  0.17321  0.96255  0.75505  1.0000
  C   C842      1.0  0.12111  0.77511  0.63054  1.0000
  H   H1489     1.0  0.18430  0.95169  0.69237  1.0000
  C   C843      1.0  0.15772  0.78490  0.56241  1.0000
  C   C844      1.0  0.17800  0.87080  0.53022  1.0000
  H   H1490     1.0  0.03348  0.81060  0.69298  1.0000
  S   S192      1.0  0.21241  0.79204  0.49829  1.0000
  H   H1491     1.0  0.16899  0.88966  0.55300  1.0000
  H   H1492     1.0  0.18434  0.95251  0.80110  1.0000
  H   H1493     1.0  0.21016  0.84512  0.72268  1.0000
  H   H1494     1.0  0.17014  0.79130  0.73216  1.0000
  C   C845      1.0  0.21521  0.85875  0.73359  1.0000
  C   C846      1.0  0.16365  0.86712  0.50708  1.0000
  H   H1495     1.0  0.19759  0.97484  0.81431  1.0000
  H   H1496     1.0  0.21177  0.84573  0.95181  1.0000
  H   H1497     1.0  0.20705  0.81796  0.80538  1.0000
  H   H1498     1.0  0.15932  0.79419  0.62814  1.0000
  H   H1499     1.0  0.16008  0.96436  0.74865  1.0000
  C   C847      1.0  0.15232  0.79596  0.83009  1.0000
  H   H1500     1.0  0.21083  0.83697  0.56895  1.0000
  H   H1501     1.0  0.19144  0.88244  0.52623  1.0000
  C   C848      1.0  0.21343  0.83295  0.84190  1.0000
  C   C849      1.0  0.12499  0.89075  0.96614  1.0000
  H   H1502     1.0  0.22775  0.74772  0.89042  1.0000
  H   H1503     1.0  0.98290  0.76691  0.66736  1.0000
  H   H1504     1.0  0.02610  0.82647  0.67447  1.0000
  C   C850      1.0  0.17558  0.94941  0.70995  1.0000
  H   H1505     1.0  0.23051  0.86585  0.73057  1.0000
  C   C851      1.0  0.13947  0.90485  0.98000  1.0000
  H   H1506     1.0  0.20982  0.84320  0.85345  1.0000
  H   H1507     1.0  0.17666  0.82206  0.56217  1.0000
  H   H1508     1.0  0.14682  0.80493  0.84158  1.0000
  C   C852      1.0  0.20320  0.82899  0.81470  1.0000
  H   H1509     1.0  0.20961  0.84155  0.80247  1.0000
  H   H1510     1.0  0.16146  0.94877  0.70362  1.0000
  H   H1511     1.0  0.19089  0.80535  0.77009  1.0000
  H   H1512     1.0  0.20819  0.84134  0.60310  1.0000
  H   H1513     1.0  0.17943  0.79455  0.82217  1.0000
  H   H1514     1.0  0.18242  0.83318  0.77559  1.0000
  C   C853      1.0  0.17611  0.80388  0.77111  1.0000
  H   H1515     1.0  0.15369  0.80127  0.74251  1.0000
  N   N50       1.0  0.18215  0.82300  0.81484  1.0000
  H   H1516     1.0  0.17881  0.80742  0.85062  1.0000
  H   H1517     1.0  0.16790  0.79028  0.78005  1.0000
  C   C854      1.0  0.17470  0.82050  0.78686  1.0000
  C   C855      1.0  0.17403  0.80503  0.82968  1.0000
  C   C856      1.0  0.16872  0.80323  0.74294  1.0000
  H   H1518     1.0  0.19329  0.78205  0.62667  1.0000
  H   H1519     1.0  0.17110  0.78608  0.49741  1.0000
  C   C857      1.0  0.17657  0.83758  0.82799  1.0000
  H   H1520     1.0  0.16123  0.83399  0.82492  1.0000
  C   C858      1.0  0.22265  0.96033  0.80452  1.0000
  H   H1521     1.0  0.16019  0.98554  0.78431  1.0000
  H   H1522     1.0  0.06683  0.79188  0.53426  1.0000
  H   H1523     1.0  0.07079  0.84108  0.54484  1.0000
  H   H1524     1.0  0.20661  0.95397  0.76851  1.0000
  H   H1525     1.0  0.07225  0.89398  0.94469  1.0000
  C   C859      1.0  0.18616  0.88605  0.96122  1.0000
  C   C860      1.0  0.98789  0.80595  0.67417  1.0000
  C   C861      1.0  0.14978  0.85194  0.97311  1.0000
  H   H1526     1.0  0.01913  0.83699  0.50608  1.0000
  H   H1527     1.0  0.08219  0.81472  0.54630  1.0000
  H   H1528     1.0  0.30960  0.87803  0.68797  1.0000
  H   H1529     1.0  0.30734  0.85224  0.76581  1.0000
  H   H1530     1.0  0.19924  0.88347  0.48532  1.0000
  H   H1531     1.0  0.17971  0.90344  0.48873  1.0000
  H   H1532     1.0  0.07792  0.87371  0.94916  1.0000
  H   H1533     1.0  0.05383  0.87097  0.94281  1.0000
  H   H1534     1.0  0.31449  0.86580  0.79588  1.0000
  Fe  Fe96      1.0  0.18138  0.74454  0.93240  1.0000
  H   H1535     1.0  0.18564  0.97859  0.72032  1.0000
  H   H1536     1.0  0.10169  0.86438  0.96941  1.0000
  H   H1537     1.0  0.19007  0.82392  0.50969  1.0000
  H   H1538     1.0  0.99137  0.82135  0.67509  1.0000
  C   C862      1.0  0.99524  0.80305  0.52474  1.0000
  C   C863      1.0  0.05023  0.86389  0.48586  1.0000
  C   C864      1.0  0.19552  0.84907  0.48705  1.0000
  H   H1539     1.0  0.98770  0.81012  0.51291  1.0000
  C   C865      1.0  0.18164  0.75209  0.62870  1.0000
  H   H1540     1.0  0.99015  0.80272  0.65356  1.0000
  C   C866      1.0  0.17904  0.84641  0.97520  1.0000
  H   H1541     1.0  0.20037  0.82486  0.97058  1.0000
  H   H1542     1.0  0.16568  0.83596  0.49443  1.0000
  C   C867      1.0  0.20893  0.84014  0.97185  1.0000
  H   H1543     1.0  0.12889  0.84456  0.48170  1.0000
  H   H1544     1.0  0.55268  0.03685  0.17039  1.0000
  C   C868      1.0  0.47287  0.99788  0.08708  1.0000
  S   S193      1.0  0.55615  0.11170  0.44566  1.0000
  Fe  Fe97      1.0  0.54050  0.09952  0.04362  1.0000
  S   S194      1.0  0.50916  0.08594  0.04454  1.0000
  S   S195      1.0  0.56055  0.10441  0.07907  1.0000
  Fe  Fe98      1.0  0.51139  0.06850  0.01040  1.0000
  C   C869      1.0  0.51156  0.99510  0.36642  1.0000
  H   H1545     1.0  0.42138  0.19474  0.35188  1.0000
  H   H1546     1.0  0.47939  0.01060  0.04831  1.0000
  S   S196      1.0  0.54277  0.08033  0.01152  1.0000
  S   S197      1.0  0.54054  0.12182  0.01530  1.0000
  Fe  Fe99      1.0  0.56122  0.08873  0.28991  1.0000
  S   S198      1.0  0.57922  0.07227  0.28300  1.0000
  S   S199      1.0  0.54346  0.08196  0.32670  1.0000
  Fe  Fe100     1.0  0.56590  0.10212  0.23240  1.0000
  S   S200      1.0  0.58437  0.08652  0.22282  1.0000
  S   S201      1.0  0.55246  0.11478  0.20169  1.0000
  Fe  Fe101     1.0  0.56332  0.06294  0.24467  1.0000
  S   S202      1.0  0.55113  0.03234  0.23093  1.0000
  Fe  Fe102     1.0  0.59878  0.09771  0.26220  1.0000
  S   S203      1.0  0.63013  0.10460  0.27251  1.0000
  S   S204      1.0  0.54442  0.07798  0.25245  1.0000
  S   S205      1.0  0.58125  0.11477  0.27084  1.0000
  Fe  Fe103     1.0  0.40967  0.18904  0.04229  1.0000
  S   S206      1.0  0.41118  0.21841  0.03983  1.0000
  S   S207      1.0  0.38127  0.16557  0.04720  1.0000
  Fe  Fe104     1.0  0.45182  0.20123  0.03574  1.0000
  S   S208      1.0  0.45570  0.23172  0.03319  1.0000
  S   S209      1.0  0.47884  0.19588  0.03284  1.0000
  Fe  Fe105     1.0  0.43623  0.22568  0.06721  1.0000
  C   C870      1.0  0.33138  0.12384  0.39322  1.0000
  Fe  Fe106     1.0  0.43014  0.22121  0.00611  1.0000
  C   C871      1.0  0.52043  0.13015  0.35790  1.0000
  S   S210      1.0  0.43390  0.19597  0.07136  1.0000
  S   S211      1.0  0.42727  0.19115  0.00690  1.0000
  H   H1547     1.0  0.50712  0.04647  0.33499  1.0000
  S   S212      1.0  0.36012  0.21919  0.29850  1.0000
  S   S213      1.0  0.41070  0.21856  0.29095  1.0000
  H   H1548     1.0  0.35881  0.17685  0.42970  1.0000
  H   H1549     1.0  0.39340  0.16580  0.43248  1.0000
  C   C872      1.0  0.33023  0.18869  0.31507  1.0000
  C   C873      1.0  0.34859  0.19509  0.30574  1.0000
  C   C874      1.0  0.35707  0.18219  0.30216  1.0000
  C   C875      1.0  0.34736  0.16318  0.30814  1.0000
  H   H1550     1.0  0.41236  0.16969  0.12169  1.0000
  H   H1551     1.0  0.37110  0.18684  0.29479  1.0000
  H   H1552     1.0  0.35408  0.15334  0.30539  1.0000
  C   C876      1.0  0.43397  0.21565  0.42679  1.0000
  C   C877      1.0  0.43744  0.22200  0.14299  1.0000
  C   C878      1.0  0.43584  0.21718  0.16963  1.0000
  C   C879      1.0  0.54691  0.01323  0.14362  1.0000
  H   H1553     1.0  0.43979  0.21281  0.12865  1.0000
  H   H1554     1.0  0.43698  0.20425  0.17557  1.0000
  H   H1555     1.0  0.38625  0.18100  0.47250  1.0000
  H   H1556     1.0  0.53661  0.00920  0.31519  1.0000
  H   H1557     1.0  0.36692  0.18211  0.98691  1.0000
  S   S214      1.0  0.41529  0.22311  0.46860  1.0000
  H   H1558     1.0  0.39137  0.19532  0.99376  1.0000
  C   C880      1.0  0.36309  0.17199  0.05868  1.0000
  C   C881      1.0  0.34463  0.15866  0.05886  1.0000
  C   C882      1.0  0.52421  0.14284  0.44314  1.0000
  H   H1559     1.0  0.52507  0.13737  0.18428  1.0000
  C   C883      1.0  0.35194  0.19550  0.07456  1.0000
  C   C884      1.0  0.36670  0.19028  0.06733  1.0000
  H   H1560     1.0  0.34172  0.14438  0.05258  1.0000
  H   H1561     1.0  0.35485  0.20986  0.08033  1.0000
  H   H1562     1.0  0.38085  0.20046  0.06858  1.0000
  S   S215      1.0  0.44421  0.23415  0.35219  1.0000
  C   C885      1.0  0.52662  0.01967  0.22637  1.0000
  C   C886      1.0  0.39095  0.18039  0.35124  1.0000
  C   C887      1.0  0.48758  0.99873  0.21927  1.0000
  H   H1563     1.0  0.47448  0.01756  0.26801  1.0000
  C   C888      1.0  0.49474  0.01839  0.22067  1.0000
  C   C889      1.0  0.51410  0.02877  0.22448  1.0000
  H   H1564     1.0  0.46912  0.07967  0.44992  1.0000
  H   H1565     1.0  0.48520  0.02561  0.21915  1.0000
  H   H1566     1.0  0.51931  0.04383  0.22611  1.0000
  C   C890      1.0  0.48380  0.13904  0.02006  1.0000
  C   C891      1.0  0.49985  0.15551  0.02227  1.0000
  C   C892      1.0  0.49809  0.17281  0.02632  1.0000
  C   C893      1.0  0.48031  0.17380  0.02808  1.0000
  C   C894      1.0  0.46429  0.15732  0.02589  1.0000
  C   C895      1.0  0.46606  0.14003  0.02188  1.0000
  H   H1567     1.0  0.51355  0.15493  0.02059  1.0000
  H   H1568     1.0  0.51054  0.18556  0.02791  1.0000
  H   H1569     1.0  0.45055  0.15791  0.02721  1.0000
  H   H1570     1.0  0.51140  0.07439  0.16673  1.0000
  C   C896      1.0  0.55770  0.10730  0.11299  1.0000
  C   C897      1.0  0.54081  0.10674  0.12314  1.0000
  C   C898      1.0  0.53945  0.10917  0.15033  1.0000
  C   C899      1.0  0.55467  0.11159  0.16767  1.0000
  C   C900      1.0  0.57136  0.11167  0.15754  1.0000
  C   C901      1.0  0.57294  0.10986  0.13035  1.0000
  H   H1571     1.0  0.52889  0.10450  0.11007  1.0000
  H   H1572     1.0  0.52642  0.10874  0.15815  1.0000
  H   H1573     1.0  0.58323  0.11360  0.17060  1.0000
  H   H1574     1.0  0.58609  0.11040  0.12272  1.0000
  C   C902      1.0  0.55237  0.10331  0.41264  1.0000
  C   C903      1.0  0.53932  0.08544  0.40573  1.0000
  C   C904      1.0  0.53696  0.07916  0.37940  1.0000
  C   C905      1.0  0.54762  0.09057  0.35962  1.0000
  C   C906      1.0  0.56054  0.10853  0.36644  1.0000
  C   C907      1.0  0.56285  0.11485  0.39279  1.0000
  H   H1575     1.0  0.53113  0.07641  0.42074  1.0000
  H   H1576     1.0  0.52690  0.06528  0.37441  1.0000
  H   H1577     1.0  0.56844  0.11768  0.35137  1.0000
  H   H1578     1.0  0.57276  0.12881  0.39782  1.0000
  H   H1579     1.0  0.32950  0.15047  0.38628  1.0000
  H   H1580     1.0  0.61026  0.07750  0.33583  1.0000
  H   H1581     1.0  0.52338  0.05492  0.09020  1.0000
  H   H1582     1.0  0.50259  0.05226  0.18328  1.0000
  H   H1583     1.0  0.49101  0.18771  0.44727  1.0000
  H   H1584     1.0  0.52608  0.04725  0.04454  1.0000
  H   H1585     1.0  0.32351  0.16398  0.21788  1.0000
  C   C908      1.0  0.41038  0.18218  0.34269  1.0000
  H   H1586     1.0  0.48730  0.03184  0.38245  1.0000
  H   H1587     1.0  0.60142  0.10536  0.44383  1.0000
  H   H1588     1.0  0.31678  0.11791  0.40013  1.0000
  H   H1589     1.0  0.55993  0.01795  0.13238  1.0000
  H   H1590     1.0  0.35494  0.21519  0.35455  1.0000
  C   C909      1.0  0.61791  0.13247  0.34855  1.0000
  H   H1591     1.0  0.63085  0.11352  0.41809  1.0000
  H   H1592     1.0  0.36977  0.14856  0.43243  1.0000
  N   N51       1.0  0.51418  0.14719  0.10532  1.0000
  C   C910      1.0  0.51283  0.14216  0.13389  1.0000
  C   C911      1.0  0.50168  0.13054  0.08870  1.0000
  C   C912      1.0  0.53428  0.15189  0.09778  1.0000
  C   C913      1.0  0.50946  0.16413  0.10028  1.0000
  C   C914      1.0  0.48942  0.16241  0.10682  1.0000
  C   C915      1.0  0.52620  0.15709  0.15340  1.0000
  C   C916      1.0  0.53845  0.15516  0.06827  1.0000
  C   C917      1.0  0.48316  0.11720  0.10081  1.0000
  C   C918      1.0  0.47012  0.10366  0.08027  1.0000
  C   C919      1.0  0.48743  0.18127  0.10430  1.0000
  C   C920      1.0  0.52262  0.15053  0.18160  1.0000
  C   C921      1.0  0.55883  0.15813  0.06319  1.0000
  H   H1593     1.0  0.51565  0.12919  0.13639  1.0000
  H   H1594     1.0  0.49844  0.13867  0.14090  1.0000
  H   H1595     1.0  0.49808  0.13534  0.06963  1.0000
  H   H1596     1.0  0.50927  0.12129  0.08360  1.0000
  H   H1597     1.0  0.53901  0.14058  0.10410  1.0000
  H   H1598     1.0  0.54382  0.16494  0.10801  1.0000
  H   H1599     1.0  0.51975  0.17672  0.11061  1.0000
  H   H1600     1.0  0.51085  0.16762  0.07920  1.0000
  H   H1601     1.0  0.48575  0.15766  0.12704  1.0000
  H   H1602     1.0  0.47912  0.15251  0.09271  1.0000
  H   H1603     1.0  0.54109  0.15959  0.14981  1.0000
  H   H1604     1.0  0.52419  0.17051  0.15197  1.0000
  H   H1605     1.0  0.53635  0.16786  0.06161  1.0000
  H   H1606     1.0  0.52935  0.14307  0.05598  1.0000
  H   H1607     1.0  0.48640  0.10867  0.11614  1.0000
  H   H1608     1.0  0.47527  0.12486  0.10995  1.0000
  H   H1609     1.0  0.47741  0.09576  0.07003  1.0000
  H   H1610     1.0  0.45766  0.09350  0.08981  1.0000
  H   H1611     1.0  0.46518  0.11145  0.06568  1.0000
  H   H1612     1.0  0.47263  0.17949  0.10730  1.0000
  H   H1613     1.0  0.49651  0.19151  0.11916  1.0000
  H   H1614     1.0  0.49133  0.18701  0.08449  1.0000
  H   H1615     1.0  0.55486  0.02726  0.29841  1.0000
  C   C922      1.0  0.34069  0.20333  0.01113  1.0000
  H   H1616     1.0  0.57824  0.07674  0.34035  1.0000
  H   H1617     1.0  0.56155  0.14542  0.06832  1.0000
  C   C923      1.0  0.52794  0.05237  0.14376  1.0000
  H   H1618     1.0  0.35080  0.18814  0.47543  1.0000
  C   C924      1.0  0.49204  0.14311  0.43881  1.0000
  H   H1619     1.0  0.51323  0.17191  0.44575  1.0000
  H   H1620     1.0  0.38585  0.16950  0.23932  1.0000
  H   H1621     1.0  0.53521  0.00401  0.13063  1.0000
  C   C925      1.0  0.37866  0.16341  0.43700  1.0000
  H   H1622     1.0  0.51508  0.15209  0.39642  1.0000
  C   C926      1.0  0.60793  0.11895  0.43386  1.0000
  C   C927      1.0  0.47032  0.02816  0.07234  1.0000
  H   H1623     1.0  0.50524  0.01516  0.27304  1.0000
  H   H1624     1.0  0.58099  0.04691  0.13684  1.0000
  H   H1625     1.0  0.49378  0.13287  0.39006  1.0000
  H   H1626     1.0  0.46689  0.10670  0.42625  1.0000
  N   N52       1.0  0.49422  0.02974  0.30034  1.0000
  H   H1627     1.0  0.52763  0.06376  0.13084  1.0000
  H   H1628     1.0  0.54745  0.05975  0.08257  1.0000
  C   C928      1.0  0.36037  0.18613  0.38098  1.0000
  H   H1629     1.0  0.48200  0.07525  0.42318  1.0000
  H   H1630     1.0  0.39687  0.22171  0.15365  1.0000
  N   N53       1.0  0.37028  0.17428  0.39215  1.0000
  S   S216      1.0  0.31543  0.18982  0.08265  1.0000
  C   C929      1.0  0.37073  0.20760  0.38514  1.0000
  C   C930      1.0  0.54919  0.00124  0.16603  1.0000
  H   H1631     1.0  0.59109  0.08196  0.10308  1.0000
  C   C931      1.0  0.35900  0.15406  0.38454  1.0000
  C   C932      1.0  0.35867  0.21814  0.37562  1.0000
  S   S217      1.0  0.49202  0.03810  0.00746  1.0000
  H   H1632     1.0  0.34633  0.18222  0.38967  1.0000
  H   H1633     1.0  0.35743  0.18327  0.35962  1.0000
  H   H1634     1.0  0.47455  0.05308  0.28481  1.0000
  H   H1635     1.0  0.62019  0.15774  0.32813  1.0000
  C   C933      1.0  0.37215  0.17715  0.42153  1.0000
  H   H1636     1.0  0.59673  0.12383  0.42752  1.0000
  Fe  Fe107     1.0  0.42424  0.23683  0.25706  1.0000
  C   C934      1.0  0.49516  0.03314  0.32965  1.0000
  H   H1637     1.0  0.38824  0.19255  0.34358  1.0000
  H   H1638     1.0  0.61294  0.10756  0.32450  1.0000
  H   H1639     1.0  0.37417  0.21141  0.40610  1.0000
  H   H1640     1.0  0.38391  0.21281  0.37419  1.0000
  H   H1641     1.0  0.50355  0.00685  0.30516  1.0000
  H   H1642     1.0  0.51222  0.11119  0.38962  1.0000
  C   C935      1.0  0.38600  0.23687  0.12761  1.0000
  C   C936      1.0  0.52718  0.01261  0.37805  1.0000
  H   H1643     1.0  0.32358  0.19858  0.31800  1.0000
  H   H1644     1.0  0.53614  0.00983  0.27985  1.0000
  H   H1645     1.0  0.47280  0.24063  0.42995  1.0000
  H   H1646     1.0  0.36664  0.23346  0.37829  1.0000
  C   C937      1.0  0.64581  0.10463  0.34183  1.0000
  H   H1647     1.0  0.34561  0.21408  0.38684  1.0000
  C   C938      1.0  0.53961  0.01852  0.29811  1.0000
  H   H1648     1.0  0.53713  0.03138  0.05354  1.0000
  H   H1649     1.0  0.49987  0.16860  0.41552  1.0000
  C   C939      1.0  0.34337  0.21593  0.22903  1.0000
  H   H1650     1.0  0.51864  0.07304  0.20013  1.0000
  N   N54       1.0  0.36555  0.18742  0.15941  1.0000
  C   C940      1.0  0.37694  0.19250  0.18484  1.0000
  C   C941      1.0  0.36676  0.20521  0.14614  1.0000
  C   C942      1.0  0.34527  0.17687  0.16608  1.0000
  C   C943      1.0  0.37153  0.17523  0.14131  1.0000
  C   C944      1.0  0.39259  0.17813  0.14249  1.0000
  C   C945      1.0  0.32907  0.15683  0.31770  1.0000
  H   H1651     1.0  0.46704  0.03536  0.05532  1.0000
  C   C946      1.0  0.38635  0.21836  0.13738  1.0000
  H   H1652     1.0  0.60588  0.06946  0.11149  1.0000
  C   C947      1.0  0.39746  0.16813  0.11964  1.0000
  H   H1653     1.0  0.56561  0.06659  0.15305  1.0000
  C   C948      1.0  0.53359  0.04845  0.08578  1.0000
  N   N55       1.0  0.61456  0.09965  0.36477  1.0000
  H   H1654     1.0  0.39219  0.19930  0.18143  1.0000
  H   H1655     1.0  0.35790  0.20198  0.12793  1.0000
  H   H1656     1.0  0.36112  0.21340  0.15906  1.0000
  H   H1657     1.0  0.34094  0.18483  0.18107  1.0000
  H   H1658     1.0  0.34345  0.16319  0.17491  1.0000
  H   H1659     1.0  0.36370  0.16010  0.14514  1.0000
  H   H1660     1.0  0.36764  0.17697  0.12063  1.0000
  H   H1661     1.0  0.39606  0.17246  0.16088  1.0000
  H   H1662     1.0  0.40190  0.19305  0.14181  1.0000
  H   H1663     1.0  0.40483  0.23924  0.42395  1.0000
  C   C949      1.0  0.37772  0.16626  0.46648  1.0000
  H   H1664     1.0  0.52073  0.02400  0.10960  1.0000
  H   H1665     1.0  0.51296  0.02637  0.06157  1.0000
  C   C950      1.0  0.31790  0.13770  0.23614  1.0000
  H   H1666     1.0  0.54392  0.02824  0.10044  1.0000
  C   C951      1.0  0.47150  0.08119  0.42854  1.0000
  H   H1667     1.0  0.51164  0.99651  0.34499  1.0000
  H   H1668     1.0  0.37538  0.23435  0.11146  1.0000
  H   H1669     1.0  0.38841  0.15297  0.11905  1.0000
  H   H1670     1.0  0.39565  0.17448  0.10091  1.0000
  C   C952      1.0  0.37384  0.17601  0.20371  1.0000
  H   H1671     1.0  0.33525  0.18923  0.24735  1.0000
  H   H1672     1.0  0.52854  0.12251  0.34903  1.0000
  C   C953      1.0  0.50763  0.13696  0.40051  1.0000
  H   H1673     1.0  0.37354  0.16333  0.19301  1.0000
  H   H1674     1.0  0.53590  0.99508  0.17665  1.0000
  H   H1675     1.0  0.38077  0.16755  0.34160  1.0000
  H   H1676     1.0  0.33119  0.11964  0.37236  1.0000
  C   C954      1.0  0.36076  0.21689  0.00632  1.0000
  C   C955      1.0  0.59419  0.07323  0.11825  1.0000
  Fe  Fe108     1.0  0.53854  0.09612  0.47993  1.0000
  C   C956      1.0  0.50091  0.04804  0.28607  1.0000
  H   H1677     1.0  0.61126  0.07068  0.36886  1.0000
  H   H1678     1.0  0.36299  0.16265  0.47221  1.0000
  C   C957      1.0  0.61902  0.11704  0.41039  1.0000
  C   C958      1.0  0.33933  0.14517  0.39648  1.0000
  C   C959      1.0  0.38915  0.18107  0.22520  1.0000
  C   C960      1.0  0.61388  0.14233  0.32478  1.0000
  H   H1679     1.0  0.48523  0.16938  0.47089  1.0000
  C   C961      1.0  0.60598  0.07931  0.35599  1.0000
  C   C962      1.0  0.33072  0.17226  0.14298  1.0000
  H   H1680     1.0  0.59877  0.08158  0.13677  1.0000
  C   C963      1.0  0.58417  0.07015  0.35534  1.0000
  H   H1681     1.0  0.46431  0.02347  0.29530  1.0000
  H   H1682     1.0  0.46169  0.99595  0.10145  1.0000
  H   H1683     1.0  0.52489  0.02536  0.37197  1.0000
  H   H1684     1.0  0.62002  0.13888  0.30699  1.0000
  C   C964      1.0  0.49786  0.01110  0.47684  1.0000
  H   H1685     1.0  0.32892  0.18514  0.13640  1.0000
  Fe  Fe109     1.0  0.50910  0.10689  0.01422  1.0000
  H   H1686     1.0  0.38325  0.15691  0.47716  1.0000
  H   H1687     1.0  0.35686  0.22131  0.24049  1.0000
  H   H1688     1.0  0.49166  0.05542  0.37187  1.0000
  H   H1689     1.0  0.51548  0.05696  0.29236  1.0000
  H   H1690     1.0  0.63871  0.09577  0.38171  1.0000
  H   H1691     1.0  0.56863  0.17029  0.07484  1.0000
  H   H1692     1.0  0.33506  0.16581  0.12619  1.0000
  H   H1693     1.0  0.49839  0.02214  0.34015  1.0000
  H   H1694     1.0  0.49814  0.99498  0.37388  1.0000
  H   H1695     1.0  0.32423  0.16209  0.46130  1.0000
  H   H1696     1.0  0.45972  0.23244  0.47351  1.0000
  H   H1697     1.0  0.61741  0.12939  0.44817  1.0000
  H   H1698     1.0  0.46836  0.04001  0.38012  1.0000
  C   C965      1.0  0.60937  0.11097  0.34438  1.0000
  C   C966      1.0  0.54242  0.02995  0.15406  1.0000
  H   H1699     1.0  0.32450  0.13262  0.22034  1.0000
  C   C967      1.0  0.33347  0.18233  0.07419  1.0000
  C   C968      1.0  0.50720  0.01987  0.29388  1.0000
  C   C969      1.0  0.48585  0.17231  0.44960  1.0000
  H   H1700     1.0  0.59394  0.10699  0.34321  1.0000
  C   C970      1.0  0.48148  0.04064  0.37096  1.0000
  H   H1701     1.0  0.48600  0.00750  0.09713  1.0000
  C   C971      1.0  0.53170  0.06117  0.17179  1.0000
  C   C972      1.0  0.38968  0.17979  0.38153  1.0000
  H   H1702     1.0  0.52725  0.01223  0.39980  1.0000
  Fe  Fe110     1.0  0.39152  0.23408  0.29178  1.0000
  H   H1703     1.0  0.38263  0.19138  0.42683  1.0000
  C   C973      1.0  0.51501  0.06545  0.18096  1.0000
  C   C974      1.0  0.60656  0.10135  0.39104  1.0000
  C   C975      1.0  0.57688  0.05544  0.12247  1.0000
  C   C976      1.0  0.49694  0.07777  0.27240  1.0000
  H   H1704     1.0  0.33996  0.11779  0.40488  1.0000
  H   H1705     1.0  0.51348  0.04132  0.14286  1.0000
  H   H1706     1.0  0.62497  0.13085  0.40108  1.0000
  H   H1707     1.0  0.36714  0.14519  0.38900  1.0000
  C   C977      1.0  0.32896  0.19970  0.24340  1.0000
  H   H1708     1.0  0.33953  0.14835  0.41765  1.0000
  C   C978      1.0  0.51951  0.00001  0.22462  1.0000
  H   H1709     1.0  0.32039  0.18271  0.45400  1.0000
  C   C979      1.0  0.50082  0.02133  0.99721  1.0000
  H   H1710     1.0  0.54415  0.07445  0.17221  1.0000
  H   H1711     1.0  0.53449  0.05195  0.18623  1.0000
  H   H1712     1.0  0.57820  0.07147  0.37441  1.0000
  H   H1713     1.0  0.41121  0.18356  0.32110  1.0000
  S   S218      1.0  0.50761  0.08212  0.47316  1.0000
  H   H1714     1.0  0.40291  0.18329  0.21661  1.0000
  H   H1715     1.0  0.46011  0.02710  0.08779  1.0000
  H   H1716     1.0  0.31564  0.14483  0.01772  1.0000
  H   H1717     1.0  0.48473  0.03683  0.07975  1.0000
  C   C980      1.0  0.48965  0.06065  0.28983  1.0000
  H   H1718     1.0  0.39020  0.19401  0.23599  1.0000
  H   H1719     1.0  0.61147  0.13644  0.36557  1.0000
  H   H1720     1.0  0.52782  0.14533  0.35425  1.0000
  C   C981      1.0  0.49686  0.11366  0.43585  1.0000
  H   H1721     1.0  0.50715  0.10705  0.43236  1.0000
  S   S219      1.0  0.43077  0.22216  0.22182  1.0000
  H   H1722     1.0  0.45060  0.21302  0.39471  1.0000
  C   C982      1.0  0.42147  0.22348  0.43540  1.0000
  C   C983      1.0  0.46907  0.00872  0.06370  1.0000
  H   H1723     1.0  0.43910  0.20784  0.44023  1.0000
  H   H1724     1.0  0.35629  0.15244  0.36302  1.0000
  C   C984      1.0  0.44044  0.21858  0.40099  1.0000
  C   C985      1.0  0.43278  0.22894  0.18857  1.0000
  C   C986      1.0  0.41459  0.23320  0.41752  1.0000
  H   H1725     1.0  0.57303  0.04780  0.10343  1.0000
  H   H1726     1.0  0.50802  0.14818  0.18689  1.0000
  H   H1727     1.0  0.37011  0.21662  0.02305  1.0000
  C   C987      1.0  0.49914  0.16470  0.43642  1.0000
  H   H1728     1.0  0.55950  0.07183  0.12152  1.0000
  H   H1729     1.0  0.48855  0.08652  0.27518  1.0000
  H   H1730     1.0  0.50627  0.12506  0.34824  1.0000
  H   H1731     1.0  0.49141  0.06600  0.31034  1.0000
  H   H1732     1.0  0.39089  0.21179  0.12087  1.0000
  H   H1733     1.0  0.64064  0.09042  0.33273  1.0000
  H   H1734     1.0  0.36025  0.17245  0.21353  1.0000
  H   H1735     1.0  0.51668  0.15349  0.47969  1.0000
  H   H1736     1.0  0.58264  0.04704  0.32928  1.0000
  C   C988      1.0  0.52427  0.14463  0.47338  1.0000
  H   H1737     1.0  0.52862  0.02334  0.16359  1.0000
  H   H1738     1.0  0.53342  0.13143  0.39572  1.0000
  C   C989      1.0  0.32984  0.16378  0.06675  1.0000
  C   C990      1.0  0.51894  0.12657  0.38725  1.0000
  H   H1739     1.0  0.47144  0.04269  0.33210  1.0000
  C   C991      1.0  0.52849  0.03119  0.29903  1.0000
  H   H1740     1.0  0.47406  0.99855  0.00066  1.0000
  C   C992      1.0  0.57719  0.04928  0.34840  1.0000
  H   H1741     1.0  0.33841  0.22759  0.22678  1.0000
  N   N56       1.0  0.54184  0.04438  0.13447  1.0000
  C   C993      1.0  0.52616  0.01237  0.98333  1.0000
  C   C994      1.0  0.47816  0.10178  0.42113  1.0000
  H   H1742     1.0  0.37370  0.20334  0.19592  1.0000
  H   H1743     1.0  0.63334  0.13786  0.35163  1.0000
  C   C995      1.0  0.43417  0.22903  0.38344  1.0000
  H   H1744     1.0  0.51184  0.08644  0.27765  1.0000
  H   H1745     1.0  0.47850  0.13739  0.42748  1.0000
  H   H1746     1.0  0.39616  0.16997  0.38853  1.0000
  H   H1747     1.0  0.59851  0.13807  0.32142  1.0000
  H   H1748     1.0  0.60325  0.08819  0.40222  1.0000
  H   H1749     1.0  0.46620  0.01930  0.34263  1.0000
  N   N57       1.0  0.50517  0.13419  0.42956  1.0000
  C   C996      1.0  0.52705  0.03759  0.05989  1.0000
  H   H1750     1.0  0.45805  0.07304  0.41797  1.0000
  H   H1751     1.0  0.45356  0.12733  0.02019  1.0000
  H   H1752     1.0  0.56170  0.16093  0.04214  1.0000
  H   H1753     1.0  0.53231  0.15697  0.43538  1.0000
  H   H1754     1.0  0.54108  0.01364  0.37119  1.0000
  S   S220      1.0  0.48495  0.11685  0.01494  1.0000
  H   H1755     1.0  0.47972  0.10241  0.39963  1.0000
  H   H1756     1.0  0.39916  0.19378  0.38940  1.0000
  H   H1757     1.0  0.53241  0.16138  0.19516  1.0000
  H   H1758     1.0  0.53129  0.03853  0.31836  1.0000
  H   H1759     1.0  0.59291  0.10296  0.38820  1.0000
  C   C997      1.0  0.53488  0.03530  0.10790  1.0000
  H   H1760     1.0  0.50133  0.04538  0.26472  1.0000
  H   H1761     1.0  0.34599  0.21132  0.20945  1.0000
  H   H1762     1.0  0.48818  0.13934  0.45949  1.0000
  C   C998      1.0  0.56070  0.06028  0.13323  1.0000
  H   H1763     1.0  0.41315  0.16959  0.34820  1.0000
  C   C999      1.0  0.47731  0.03359  0.34253  1.0000
  Fe  Fe111     1.0  0.42984  0.24190  0.31714  1.0000
  H   H1764     1.0  0.53280  0.13445  0.43884  1.0000
  C   C1000     1.0  0.46749  0.99681  0.29790  1.0000
  C   C1001     1.0  0.47483  0.01764  0.28984  1.0000
  H   H1765     1.0  0.53401  0.04177  0.28360  1.0000
  H   H1766     1.0  0.31564  0.15346  0.06657  1.0000
  H   H1767     1.0  0.49580  0.07344  0.25143  1.0000
  H   H1768     1.0  0.56163  0.04340  0.34692  1.0000
  H   H1769     1.0  0.58171  0.04170  0.36379  1.0000
  H   H1770     1.0  0.45485  0.00114  0.05484  1.0000
  C   C1002     1.0  0.47873  0.21859  0.46838  1.0000
  H   H1771     1.0  0.49397  0.11190  0.45704  1.0000
  H   H1772     1.0  0.55130  0.16810  0.47725  1.0000
  H   H1773     1.0  0.47163  0.21055  0.45043  1.0000
  H   H1774     1.0  0.47148  0.16588  0.44068  1.0000
  H   H1775     1.0  0.64156  0.14564  0.26730  1.0000
  C   C1003     1.0  0.52089  0.99661  0.47762  1.0000
  H   H1776     1.0  0.32843  0.14368  0.25238  1.0000
  C   C1004     1.0  0.63554  0.10505  0.36740  1.0000
  C   C1005     1.0  0.32051  0.16969  0.32104  1.0000
  H   H1777     1.0  0.36131  0.23141  0.00457  1.0000
  S   S221      1.0  0.31786  0.13294  0.32610  1.0000
  H   H1778     1.0  0.56059  0.00977  0.18001  1.0000
  H   H1779     1.0  0.50468  0.99350  0.07913  1.0000
  C   C1006     1.0  0.48864  0.00248  0.99586  1.0000
  C   C1007     1.0  0.42090  0.23599  0.39168  1.0000
  C   C1008     1.0  0.48437  0.99418  0.46718  1.0000
  C   C1009     1.0  0.43621  0.23878  0.13503  1.0000
  H   H1780     1.0  0.34108  0.18951  0.01617  1.0000
  H   H1781     1.0  0.64264  0.11944  0.37562  1.0000
  H   H1782     1.0  0.47014  0.99308  0.46322  1.0000
  C   C1010     1.0  0.51963  0.02629  0.99090  1.0000
  H   H1783     1.0  0.64396  0.11452  0.32750  1.0000
  H   H1784     1.0  0.33589  0.20883  0.02838  1.0000
  H   H1785     1.0  0.49403  0.22186  0.46765  1.0000
  H   H1786     1.0  0.52913  0.04081  0.99182  1.0000
  C   C1011     1.0  0.47501  0.23658  0.47110  1.0000
  H   H1787     1.0  0.47021  0.99548  0.31904  1.0000
  H   H1788     1.0  0.32659  0.20535  0.26240  1.0000
  C   C1012     1.0  0.32781  0.20110  0.98650  1.0000
  H   H1789     1.0  0.36615  0.21303  0.98820  1.0000
  Fe  Fe112     1.0  0.54013  0.10133  0.98313  1.0000
  H   H1790     1.0  0.54084  0.15537  0.98247  1.0000
  H   H1791     1.0  0.55260  0.14523  0.47947  1.0000
  H   H1792     1.0  0.38357  0.17103  0.98391  1.0000
  C   C1013     1.0  0.51392  0.99349  0.98195  1.0000
  H   H1793     1.0  0.43837  0.99327  0.30334  1.0000
  C   C1014     1.0  0.50403  0.00609  0.90328  1.0000
  H   H1794     1.0  0.55581  0.00205  0.82756  1.0000
  S   S222      1.0  0.55971  0.10897  0.94863  1.0000
  Fe  Fe113     1.0  0.53534  0.08571  0.53856  1.0000
  S   S223      1.0  0.50387  0.07124  0.53463  1.0000
  S   S224      1.0  0.55151  0.08256  0.57552  1.0000
  C   C1015     1.0  0.54364  0.05407  0.91782  1.0000
  H   H1795     1.0  0.33923  0.17288  0.67459  1.0000
  Fe  Fe114     1.0  0.50479  0.09597  0.51074  1.0000
  C   C1016     1.0  0.63402  0.09646  0.68597  1.0000
  S   S225      1.0  0.54066  0.07182  0.50193  1.0000
  S   S226      1.0  0.53606  0.11142  0.51686  1.0000
  Fe  Fe115     1.0  0.56075  0.09037  0.79270  1.0000
  S   S227      1.0  0.57747  0.07201  0.79382  1.0000
  S   S228      1.0  0.54241  0.09337  0.82580  1.0000
  Fe  Fe116     1.0  0.56516  0.09533  0.73241  1.0000
  S   S229      1.0  0.58198  0.07734  0.73043  1.0000
  S   S230      1.0  0.55623  0.10773  0.69631  1.0000
  Fe  Fe117     1.0  0.56073  0.05823  0.75736  1.0000
  S   S231      1.0  0.54759  0.02680  0.74924  1.0000
  Fe  Fe118     1.0  0.59738  0.09320  0.76690  1.0000
  S   S232      1.0  0.62934  0.10057  0.77012  1.0000
  S   S233      1.0  0.54314  0.07534  0.75741  1.0000
  S   S234      1.0  0.58143  0.11240  0.76771  1.0000
  Fe  Fe119     1.0  0.40263  0.17978  0.54273  1.0000
  S   S235      1.0  0.40591  0.20951  0.53839  1.0000
  S   S236      1.0  0.37350  0.15809  0.55013  1.0000
  Fe  Fe120     1.0  0.44445  0.18964  0.53487  1.0000
  S   S237      1.0  0.42215  0.23455  0.97032  1.0000
  S   S238      1.0  0.47099  0.18324  0.53188  1.0000
  Fe  Fe121     1.0  0.43114  0.21654  0.56520  1.0000
  N   N58       1.0  0.63176  0.12921  0.68463  1.0000
  Fe  Fe122     1.0  0.42380  0.21013  0.50428  1.0000
  H   H1796     1.0  0.39421  0.21700  0.62743  1.0000
  S   S239      1.0  0.42727  0.18655  0.57111  1.0000
  S   S240      1.0  0.41930  0.17973  0.50701  1.0000
  S   S241      1.0  0.43744  0.22553  0.72066  1.0000
  S   S242      1.0  0.36285  0.21754  0.79391  1.0000
  S   S243      1.0  0.41380  0.21787  0.78771  1.0000
  C   C1017     1.0  0.33384  0.15554  0.81635  1.0000
  H   H1797     1.0  0.33443  0.13384  0.76578  1.0000
  C   C1018     1.0  0.33304  0.18630  0.80853  1.0000
  C   C1019     1.0  0.35220  0.19370  0.80290  1.0000
  C   C1020     1.0  0.36221  0.18195  0.80432  1.0000
  C   C1021     1.0  0.35305  0.16299  0.81101  1.0000
  C   C1022     1.0  0.38892  0.18123  0.63076  1.0000
  H   H1798     1.0  0.37696  0.18740  0.80009  1.0000
  H   H1799     1.0  0.36089  0.15400  0.81186  1.0000
  H   H1800     1.0  0.33130  0.14400  0.70826  1.0000
  C   C1023     1.0  0.43858  0.21938  0.64161  1.0000
  C   C1024     1.0  0.43966  0.21706  0.66884  1.0000
  C   C1025     1.0  0.43479  0.22835  0.68658  1.0000
  H   H1801     1.0  0.44252  0.21066  0.62824  1.0000
  H   H1802     1.0  0.44447  0.20653  0.67622  1.0000
  H   H1803     1.0  0.33132  0.17476  0.90900  1.0000
  C   C1026     1.0  0.44211  0.22630  0.93080  1.0000
  C   C1027     1.0  0.44718  0.22620  0.90450  1.0000
  H   H1804     1.0  0.44929  0.22173  0.94604  1.0000
  H   H1805     1.0  0.50945  0.99300  0.53165  1.0000
  C   C1028     1.0  0.35641  0.16565  0.56291  1.0000
  C   C1029     1.0  0.33945  0.15246  0.57173  1.0000
  C   C1030     1.0  0.33871  0.14274  0.74839  1.0000
  C   C1031     1.0  0.32845  0.17731  0.58179  1.0000
  C   C1032     1.0  0.34538  0.19041  0.57324  1.0000
  C   C1033     1.0  0.35929  0.18462  0.56406  1.0000
  H   H1806     1.0  0.33708  0.13772  0.57113  1.0000
  H   H1807     1.0  0.34776  0.20515  0.57360  1.0000
  H   H1808     1.0  0.37212  0.19495  0.55763  1.0000
  H   H1809     1.0  0.50085  0.00561  0.92448  1.0000
  C   C1034     1.0  0.52310  0.01496  0.74380  1.0000
  C   C1035     1.0  0.61996  0.12548  0.65953  1.0000
  H   H1810     1.0  0.49238  0.00764  0.57676  1.0000
  H   H1811     1.0  0.35769  0.23043  0.89048  1.0000
  C   C1036     1.0  0.49093  0.01267  0.74762  1.0000
  C   C1037     1.0  0.51035  0.02271  0.75173  1.0000
  H   H1812     1.0  0.37837  0.21219  0.49681  1.0000
  H   H1813     1.0  0.48116  0.01865  0.75415  1.0000
  H   H1814     1.0  0.51540  0.03631  0.76136  1.0000
  C   C1038     1.0  0.47804  0.12736  0.51608  1.0000
  C   C1039     1.0  0.49330  0.14337  0.52453  1.0000
  C   C1040     1.0  0.49087  0.16032  0.52928  1.0000
  C   C1041     1.0  0.47313  0.16140  0.52612  1.0000
  C   C1042     1.0  0.45787  0.14538  0.51775  1.0000
  C   C1043     1.0  0.46036  0.12851  0.51264  1.0000
  H   H1815     1.0  0.50694  0.14268  0.52754  1.0000
  H   H1816     1.0  0.50277  0.17263  0.53578  1.0000
  H   H1817     1.0  0.44416  0.14598  0.51515  1.0000
  C   C1044     1.0  0.60112  0.15027  0.72414  1.0000
  C   C1045     1.0  0.55265  0.08992  0.60894  1.0000
  C   C1046     1.0  0.56171  0.08270  0.62762  1.0000
  C   C1047     1.0  0.56311  0.08811  0.65430  1.0000
  C   C1048     1.0  0.55545  0.10087  0.66274  1.0000
  C   C1049     1.0  0.54654  0.10823  0.64406  1.0000
  C   C1050     1.0  0.54507  0.10276  0.61737  1.0000
  H   H1818     1.0  0.56764  0.07277  0.62137  1.0000
  H   H1819     1.0  0.57001  0.08231  0.66836  1.0000
  H   H1820     1.0  0.54060  0.11816  0.65029  1.0000
  H   H1821     1.0  0.53813  0.10852  0.60330  1.0000
  C   C1051     1.0  0.55429  0.10342  0.91480  1.0000
  C   C1052     1.0  0.53605  0.09808  0.90424  1.0000
  C   C1053     1.0  0.53264  0.09483  0.87702  1.0000
  C   C1054     1.0  0.54735  0.09663  0.86008  1.0000
  C   C1055     1.0  0.56549  0.10149  0.87076  1.0000
  C   C1056     1.0  0.56894  0.10504  0.89790  1.0000
  H   H1822     1.0  0.52469  0.09697  0.91695  1.0000
  H   H1823     1.0  0.51857  0.09112  0.86894  1.0000
  H   H1824     1.0  0.57694  0.10297  0.85802  1.0000
  H   H1825     1.0  0.58310  0.10919  0.90585  1.0000
  H   H1826     1.0  0.55070  0.16428  0.95122  1.0000
  H   H1827     1.0  0.48378  0.02335  0.92829  1.0000
  H   H1828     1.0  0.47321  0.15378  0.91500  1.0000
  H   H1829     1.0  0.45235  0.08984  0.94393  1.0000
  H   H1830     1.0  0.38735  0.24146  0.65003  1.0000
  H   H1831     1.0  0.53729  0.05403  0.81363  1.0000
  H   H1832     1.0  0.49017  0.16912  0.97005  1.0000
  H   H1833     1.0  0.33200  0.15350  0.92216  1.0000
  C   C1057     1.0  0.51303  0.15749  0.88873  1.0000
  H   H1834     1.0  0.45947  0.03498  0.73925  1.0000
  C   C1058     1.0  0.37834  0.23421  0.63286  1.0000
  C   C1059     1.0  0.45324  0.03080  0.71923  1.0000
  H   H1835     1.0  0.46756  0.07725  0.93984  1.0000
  C   C1060     1.0  0.38039  0.20583  0.67396  1.0000
  H   H1836     1.0  0.52480  0.14139  0.86465  1.0000
  C   C1061     1.0  0.48408  0.99485  0.73545  1.0000
  H   H1837     1.0  0.33244  0.19306  0.97212  1.0000
  H   H1838     1.0  0.37628  0.24031  0.59158  1.0000
  C   C1062     1.0  0.48528  0.15817  0.92940  1.0000
  H   H1839     1.0  0.53502  0.05921  0.93038  1.0000
  H   H1840     1.0  0.52826  0.16427  0.85261  1.0000
  H   H1841     1.0  0.36417  0.21629  0.52169  1.0000
  C   C1063     1.0  0.51682  0.02633  0.55778  1.0000
  H   H1842     1.0  0.37048  0.17833  0.69296  1.0000
  C   C1064     1.0  0.53077  0.04043  0.82351  1.0000
  S   S244      1.0  0.48021  0.10570  0.50896  1.0000
  H   H1843     1.0  0.54434  0.05132  0.86034  1.0000
  C   C1065     1.0  0.49853  0.14039  0.90234  1.0000
  H   H1844     1.0  0.52622  0.16372  0.90067  1.0000
  H   H1845     1.0  0.62424  0.08970  0.66925  1.0000
  H   H1846     1.0  0.50725  0.16842  0.88514  1.0000
  H   H1847     1.0  0.32515  0.19524  0.80753  1.0000
  C   C1066     1.0  0.37909  0.21457  0.62838  1.0000
  C   C1067     1.0  0.34960  0.19869  0.65074  1.0000
  H   H1848     1.0  0.48934  0.01051  0.54210  1.0000
  C   C1068     1.0  0.52038  0.02507  0.86702  1.0000
  H   H1849     1.0  0.54653  0.04430  0.69962  1.0000
  H   H1850     1.0  0.50719  0.01685  0.85568  1.0000
  C   C1069     1.0  0.37252  0.19302  0.69748  1.0000
  H   H1851     1.0  0.34423  0.20196  0.63173  1.0000
  C   C1070     1.0  0.60483  0.13614  0.70632  1.0000
  S   S245      1.0  0.44565  0.23267  0.85184  1.0000
  H   H1852     1.0  0.36342  0.17012  0.65226  1.0000
  S   S246      1.0  0.50880  0.08815  0.98009  1.0000
  C   C1071     1.0  0.50457  0.03770  0.89892  1.0000
  C   C1072     1.0  0.48069  0.10696  0.93202  1.0000
  H   H1853     1.0  0.52401  0.02777  0.53889  1.0000
  H   H1854     1.0  0.51334  0.03886  0.56057  1.0000
  H   H1855     1.0  0.52655  0.02604  0.57399  1.0000
  C   C1073     1.0  0.46846  0.17631  0.95259  1.0000
  H   H1856     1.0  0.60819  0.15123  0.74361  1.0000
  H   H1857     1.0  0.35641  0.22707  0.85536  1.0000
  S   S247      1.0  0.44979  0.22044  0.53055  1.0000
  C   C1074     1.0  0.47970  0.12584  0.94081  1.0000
  H   H1858     1.0  0.47058  0.09216  0.96821  1.0000
  H   H1859     1.0  0.48541  0.13531  0.88989  1.0000
  C   C1075     1.0  0.34963  0.19208  0.49602  1.0000
  H   H1860     1.0  0.32815  0.20299  0.49086  1.0000
  H   H1861     1.0  0.55746  0.01392  0.79716  1.0000
  N   N59       1.0  0.49911  0.05632  0.68096  1.0000
  C   C1076     1.0  0.49204  0.05060  0.65318  1.0000
  C   C1077     1.0  0.48541  0.04323  0.69933  1.0000
  C   C1078     1.0  0.50111  0.07635  0.68542  1.0000
  C   C1079     1.0  0.51800  0.05519  0.68582  1.0000
  C   C1080     1.0  0.51930  0.03609  0.67919  1.0000
  C   C1081     1.0  0.50592  0.06064  0.63159  1.0000
  C   C1082     1.0  0.50546  0.08396  0.71400  1.0000
  C   C1083     1.0  0.46556  0.04389  0.69896  1.0000
  C   C1084     1.0  0.38582  0.19938  0.72141  1.0000
  C   C1085     1.0  0.53966  0.03769  0.68074  1.0000
  C   C1086     1.0  0.49734  0.05395  0.60436  1.0000
  C   C1087     1.0  0.50711  0.10428  0.71590  1.0000
  H   H1862     1.0  0.47915  0.05345  0.64915  1.0000
  H   H1863     1.0  0.48754  0.03520  0.65013  1.0000
  H   H1864     1.0  0.48337  0.02845  0.69472  1.0000
  H   H1865     1.0  0.49121  0.04576  0.71980  1.0000
  H   H1866     1.0  0.48834  0.07846  0.67819  1.0000
  H   H1867     1.0  0.51271  0.08595  0.67369  1.0000
  H   H1868     1.0  0.52898  0.06629  0.67511  1.0000
  H   H1869     1.0  0.52244  0.05818  0.70678  1.0000
  H   H1870     1.0  0.51380  0.03088  0.65922  1.0000
  H   H1871     1.0  0.51124  0.02540  0.69330  1.0000
  H   H1872     1.0  0.50962  0.07597  0.63273  1.0000
  H   H1873     1.0  0.51903  0.05795  0.63327  1.0000
  H   H1874     1.0  0.51899  0.08369  0.72112  1.0000
  H   H1875     1.0  0.49436  0.07569  0.72738  1.0000
  H   H1876     1.0  0.46617  0.05817  0.70345  1.0000
  H   H1877     1.0  0.45847  0.03933  0.67953  1.0000
  H   H1878     1.0  0.45825  0.22147  0.89966  1.0000
  H   H1879     1.0  0.63288  0.14351  0.72180  1.0000
  H   H1880     1.0  0.63129  0.15647  0.69381  1.0000
  C   C1088     1.0  0.54302  0.15141  0.96223  1.0000
  H   H1881     1.0  0.54014  0.02354  0.67922  1.0000
  H   H1882     1.0  0.54765  0.04627  0.66448  1.0000
  H   H1883     1.0  0.48462  0.05717  0.60092  1.0000
  H   H1884     1.0  0.50777  0.06138  0.58960  1.0000
  H   H1885     1.0  0.49366  0.03865  0.60181  1.0000
  H   H1886     1.0  0.49368  0.10541  0.70974  1.0000
  H   H1887     1.0  0.51059  0.10948  0.73646  1.0000
  H   H1888     1.0  0.51851  0.11332  0.70340  1.0000
  H   H1889     1.0  0.63968  0.13355  0.62750  1.0000
  H   H1890     1.0  0.34921  0.20956  0.66493  1.0000
  H   H1891     1.0  0.43911  0.03146  0.71856  1.0000
  Fe  Fe123     1.0  0.42791  0.23781  0.75570  1.0000
  C   C1089     1.0  0.33448  0.17950  0.65835  1.0000
  C   C1090     1.0  0.51813  0.15177  0.86218  1.0000
  C   C1091     1.0  0.51134  0.15118  0.94778  1.0000
  H   H1892     1.0  0.63441  0.11004  0.63778  1.0000
  C   C1092     1.0  0.48848  0.05244  0.92977  1.0000
  H   H1893     1.0  0.63467  0.11447  0.71908  1.0000
  H   H1894     1.0  0.50740  0.15191  0.96841  1.0000
  C   C1093     1.0  0.62617  0.14209  0.70193  1.0000
  C   C1094     1.0  0.42846  0.24178  0.67678  1.0000
  H   H1895     1.0  0.34357  0.19658  0.87652  1.0000
  C   C1095     1.0  0.46693  0.09061  0.94694  1.0000
  H   H1896     1.0  0.37914  0.19116  0.73871  1.0000
  C   C1096     1.0  0.36959  0.18145  0.63813  1.0000
  C   C1097     1.0  0.36321  0.22496  0.87382  1.0000
  H   H1897     1.0  0.31822  0.12396  0.52395  1.0000
  C   C1098     1.0  0.38742  0.16132  0.62452  1.0000
  C   C1099     1.0  0.42819  0.23285  0.93740  1.0000
  H   H1898     1.0  0.60596  0.11410  0.66242  1.0000
  H   H1899     1.0  0.38348  0.15251  0.64214  1.0000
  H   H1900     1.0  0.49277  0.03343  0.88410  1.0000
  H   H1901     1.0  0.54430  0.02755  0.90438  1.0000
  C   C1100     1.0  0.43314  0.23343  0.63181  1.0000
  H   H1902     1.0  0.59897  0.12231  0.71565  1.0000
  H   H1903     1.0  0.35899  0.19371  0.70313  1.0000
  H   H1904     1.0  0.52182  0.05311  0.85491  1.0000
  H   H1905     1.0  0.37682  0.15486  0.60854  1.0000
  C   C1101     1.0  0.51624  0.99713  0.73166  1.0000
  H   H1906     1.0  0.60692  0.12372  0.60818  1.0000
  H   H1907     1.0  0.36036  0.17692  0.62021  1.0000
  H   H1908     1.0  0.37308  0.20948  0.60849  1.0000
  Fe  Fe124     1.0  0.39429  0.23303  0.78903  1.0000
  H   H1909     1.0  0.53001  0.01760  0.86433  1.0000
  H   H1910     1.0  0.60228  0.09996  0.61792  1.0000
  H   H1911     1.0  0.35360  0.18272  0.50905  1.0000
  H   H1912     1.0  0.39898  0.19718  0.71782  1.0000
  H   H1913     1.0  0.53097  0.02634  0.93233  1.0000
  H   H1914     1.0  0.59688  0.13530  0.68766  1.0000
  H   H1915     1.0  0.46519  0.12451  0.93513  1.0000
  C   C1102     1.0  0.52973  0.04388  0.85287  1.0000
  H   H1916     1.0  0.60618  0.16432  0.71522  1.0000
  C   C1103     1.0  0.49887  0.00862  0.55744  1.0000
  C   C1104     1.0  0.53381  0.03262  0.91260  1.0000
  H   H1917     1.0  0.49490  0.10691  0.93503  1.0000
  H   H1918     1.0  0.49020  0.00121  0.89249  1.0000
  H   H1919     1.0  0.51758  0.12703  0.95965  1.0000
  H   H1920     1.0  0.56068  0.05158  0.95117  1.0000
  H   H1921     1.0  0.36775  0.15548  0.76238  1.0000
  C   C1105     1.0  0.52424  0.13999  0.94843  1.0000
  H   H1922     1.0  0.47671  0.10420  0.91090  1.0000
  C   C1106     1.0  0.35963  0.14726  0.74513  1.0000
  H   H1923     1.0  0.38929  0.21441  0.72609  1.0000
  H   H1924     1.0  0.53507  0.99760  0.48168  1.0000
  H   H1925     1.0  0.39955  0.18689  0.64685  1.0000
  H   H1926     1.0  0.39415  0.18960  0.61299  1.0000
  H   H1927     1.0  0.61695  0.13806  0.65425  1.0000
  H   H1928     1.0  0.58579  0.14565  0.72696  1.0000
  H   H1929     1.0  0.50544  0.14562  0.84916  1.0000
  C   C1107     1.0  0.56256  0.05887  0.93219  1.0000
  H   H1930     1.0  0.50009  0.06636  0.92859  1.0000
  H   H1931     1.0  0.44844  0.11620  0.50618  1.0000
  H   H1932     1.0  0.31788  0.19805  0.93507  1.0000
  H   H1933     1.0  0.51758  0.13068  0.48219  1.0000
  C   C1108     1.0  0.63308  0.08100  0.70499  1.0000
  N   N60       1.0  0.36955  0.19988  0.64827  1.0000
  N   N61       1.0  0.51606  0.02585  0.89561  1.0000
  C   C1109     1.0  0.33322  0.16163  0.90400  1.0000
  C   C1110     1.0  0.62804  0.11132  0.69918  1.0000
  H   H1934     1.0  0.45157  0.01611  0.71504  1.0000
  C   C1111     1.0  0.47823  0.16256  0.95595  1.0000
  H   H1935     1.0  0.49545  0.17181  0.92260  1.0000
  N   N62       1.0  0.49403  0.14366  0.93010  1.0000
  H   H1936     1.0  0.54396  0.15457  0.50637  1.0000
  H   H1937     1.0  0.36230  0.13415  0.74359  1.0000
  H   H1938     1.0  0.36475  0.15565  0.72741  1.0000
  H   H1939     1.0  0.46385  0.17934  0.97194  1.0000
  H   H1940     1.0  0.36391  0.23340  0.63614  1.0000
  H   H1941     1.0  0.48963  0.99875  0.80041  1.0000
  H   H1942     1.0  0.31847  0.13659  0.88011  1.0000
  H   H1943     1.0  0.33704  0.15619  0.75214  1.0000
  Fe  Fe125     1.0  0.50933  0.05886  0.49734  1.0000
  N   N63       1.0  0.36895  0.18135  0.90558  1.0000
  C   C1112     1.0  0.35270  0.16586  0.89191  1.0000
  C   C1113     1.0  0.38720  0.18152  0.89527  1.0000
  C   C1114     1.0  0.36857  0.17657  0.93426  1.0000
  C   C1115     1.0  0.36780  0.20036  0.90294  1.0000
  C   C1116     1.0  0.35905  0.20412  0.87691  1.0000
  H   H1944     1.0  0.50622  0.03813  0.94224  1.0000
  C   C1117     1.0  0.38446  0.19017  0.95234  1.0000
  C   C1118     1.0  0.39077  0.18588  0.86597  1.0000
  C   C1119     1.0  0.40832  0.18296  0.85740  1.0000
  H   H1945     1.0  0.52449  0.99609  0.80561  1.0000
  C   C1120     1.0  0.32729  0.13306  0.72338  1.0000
  H   H1946     1.0  0.35512  0.15252  0.89201  1.0000
  H   H1947     1.0  0.35154  0.16869  0.87085  1.0000
  H   H1948     1.0  0.39939  0.19239  0.90567  1.0000
  H   H1949     1.0  0.38843  0.16784  0.89910  1.0000
  H   H1950     1.0  0.36864  0.16224  0.93659  1.0000
  H   H1951     1.0  0.35540  0.17628  0.94297  1.0000
  H   H1952     1.0  0.35937  0.20291  0.91881  1.0000
  H   H1953     1.0  0.38203  0.21156  0.90588  1.0000
  C   C1121     1.0  0.49586  0.03687  0.92619  1.0000
  H   H1954     1.0  0.36424  0.19936  0.85942  1.0000
  H   H1955     1.0  0.40118  0.16167  0.61801  1.0000
  H   H1956     1.0  0.50396  0.12904  0.90120  1.0000
  H   H1957     1.0  0.38492  0.20467  0.95095  1.0000
  H   H1958     1.0  0.39840  0.19023  0.94741  1.0000
  H   H1959     1.0  0.37894  0.17670  0.85336  1.0000
  H   H1960     1.0  0.39324  0.20079  0.86247  1.0000
  H   H1961     1.0  0.41108  0.18714  0.83670  1.0000
  H   H1962     1.0  0.42076  0.19171  0.86959  1.0000
  H   H1963     1.0  0.40636  0.16801  0.85895  1.0000
  H   H1964     1.0  0.52745  0.13628  0.92867  1.0000
  H   H1965     1.0  0.33278  0.12251  0.71631  1.0000
  H   H1966     1.0  0.61284  0.10412  0.70260  1.0000
  H   H1967     1.0  0.51996  0.16595  0.94292  1.0000
  C   C1122     1.0  0.61342  0.11343  0.61245  1.0000
  H   H1968     1.0  0.45590  0.17027  0.93933  1.0000
  H   H1969     1.0  0.51297  0.05263  0.89495  1.0000
  H   H1970     1.0  0.48025  0.12642  0.96257  1.0000
  Fe  Fe126     1.0  0.43190  0.24020  0.81609  1.0000
  C   C1123     1.0  0.62834  0.12071  0.63447  1.0000
  H   H1971     1.0  0.38103  0.21988  0.68022  1.0000
  H   H1972     1.0  0.33092  0.16967  0.64121  1.0000
  H   H1973     1.0  0.63788  0.14125  0.77369  1.0000
  H   H1974     1.0  0.39527  0.20769  0.67175  1.0000
  H   H1975     1.0  0.51653  0.03304  0.81456  1.0000
  H   H1976     1.0  0.36142  0.22201  0.48791  1.0000
  H   H1977     1.0  0.37857  0.23299  0.87267  1.0000
  H   H1978     1.0  0.46809  0.14974  0.96477  1.0000
  C   C1124     1.0  0.32552  0.15828  0.58134  1.0000
  C   C1125     1.0  0.36420  0.21189  0.50095  1.0000
  H   H1979     1.0  0.47754  0.05123  0.91455  1.0000
  H   H1980     1.0  0.54610  0.06210  0.89961  1.0000
  H   H1981     1.0  0.56908  0.07420  0.93625  1.0000
  H   H1982     1.0  0.57222  0.05487  0.92003  1.0000
  H   H1983     1.0  0.53946  0.03210  0.81990  1.0000
  C   C1126     1.0  0.32953  0.19105  0.50143  1.0000
  H   H1984     1.0  0.48221  0.05131  0.94934  1.0000
  H   H1985     1.0  0.61991  0.11097  0.59436  1.0000
  H   H1986     1.0  0.55186  0.14296  0.96322  1.0000
  C   C1127     1.0  0.32394  0.16740  0.81533  1.0000
  C   C1128     1.0  0.43819  0.23233  0.88448  1.0000
  H   H1987     1.0  0.61877  0.07431  0.71279  1.0000
  S   S248      1.0  0.32273  0.13135  0.82356  1.0000
  H   H1988     1.0  0.47505  0.99421  0.82858  1.0000
  H   H1989     1.0  0.32972  0.15662  0.50608  1.0000
  C   C1129     1.0  0.55345  0.99993  0.80605  1.0000
  H   H1990     1.0  0.32898  0.19419  0.52269  1.0000
  H   H1991     1.0  0.32310  0.09949  0.74516  1.0000
  S   S249      1.0  0.43288  0.23781  0.59775  1.0000
  H   H1992     1.0  0.47820  0.18974  0.94463  1.0000
  H   H1993     1.0  0.54072  0.01622  0.97852  1.0000
  H   H1994     1.0  0.31898  0.19009  0.68499  1.0000
  C   C1130     1.0  0.42385  0.23833  0.89098  1.0000
  H   H1995     1.0  0.33123  0.21518  0.97782  1.0000
  C   C1131     1.0  0.41906  0.23880  0.91734  1.0000
  H   H1996     1.0  0.64328  0.08681  0.72164  1.0000
  H   H1997     1.0  0.52683  0.02549  0.48894  1.0000
  H   H1998     1.0  0.47322  0.20963  0.48554  1.0000
  H   H1999     1.0  0.52572  0.99466  0.91126  1.0000
  H   H2000     1.0  0.31889  0.16284  0.97860  1.0000
  H   H2001     1.0  0.56270  0.99318  0.79829  1.0000
  H   H2002     1.0  0.63661  0.07008  0.69478  1.0000
  C   C1132     1.0  0.31646  0.18163  0.66657  1.0000
  S   S250      1.0  0.49053  0.02963  0.48348  1.0000
  C   C1133     1.0  0.54430  0.15370  0.48470  1.0000
  C   C1134     1.0  0.31597  0.15761  0.50953  1.0000
  C   C1135     1.0  0.51627  0.01242  0.48171  1.0000
  C   C1136     1.0  0.31702  0.14988  0.88568  1.0000
  H   H2003     1.0  0.31662  0.15778  0.86784  1.0000
  H   H2004     1.0  0.31600  0.16103  0.53070  1.0000
  C   C1137     1.0  0.38130  0.18424  0.98087  1.0000
  H   H2005     1.0  0.41662  0.24281  0.87577  1.0000
  Fe  Fe127     1.0  0.50585  0.44818  0.24315  1.0000
  S   S251      1.0  0.53640  0.46505  0.24913  1.0000
  S   S252      1.0  0.48697  0.46346  0.23114  1.0000
  Fe  Fe128     1.0  0.51029  0.41125  0.25616  1.0000
  S   S253      1.0  0.54168  0.42673  0.26201  1.0000
  S   S254      1.0  0.50235  0.37988  0.26469  1.0000
  Fe  Fe129     1.0  0.53467  0.44801  0.28512  1.0000
  S   S255      1.0  0.54932  0.46567  0.32153  1.0000
  Fe  Fe130     1.0  0.54043  0.44242  0.22554  1.0000
  S   S256      1.0  0.56387  0.45241  0.19601  1.0000
  S   S257      1.0  0.50353  0.43230  0.28063  1.0000
  S   S258      1.0  0.50968  0.42575  0.21790  1.0000
  H   H2006     1.0  0.37041  0.46217  0.02018  1.0000
  S   S259      1.0  0.56300  0.44999  0.44143  1.0000
  Fe  Fe131     1.0  0.56750  0.47832  0.03872  1.0000
  S   S260      1.0  0.55062  0.46343  0.07406  1.0000
  S   S261      1.0  0.54816  0.47565  0.00377  1.0000
  S   S262      1.0  0.58761  0.47114  0.01369  1.0000
  H   H2007     1.0  0.42925  0.27286  0.42851  1.0000
  H   H2008     1.0  0.59805  0.47932  0.30830  1.0000
  C   C1138     1.0  0.49117  0.47278  0.29989  1.0000
  C   C1139     1.0  0.43499  0.27919  0.44802  1.0000
  C   C1140     1.0  0.48909  0.44484  0.15939  1.0000
  H   H2009     1.0  0.48866  0.47336  0.47509  1.0000
  Fe  Fe132     1.0  0.42435  0.27245  0.28385  1.0000
  S   S263      1.0  0.42996  0.30360  0.27688  1.0000
  H   H2010     1.0  0.63278  0.42801  0.24871  1.0000
  H   H2011     1.0  0.50754  0.46932  0.18016  1.0000
  H   H2012     1.0  0.51586  0.43991  0.42177  1.0000
  H   H2013     1.0  0.47876  0.44073  0.14270  1.0000
  H   H2014     1.0  0.42641  0.43327  0.40475  1.0000
  S   S264      1.0  0.43818  0.24553  0.10173  1.0000
  H   H2015     1.0  0.49819  0.47080  0.12125  1.0000
  H   H2016     1.0  0.50316  0.27836  0.42128  1.0000
  C   C1141     1.0  0.50864  0.47531  0.13782  1.0000
  C   C1142     1.0  0.35463  0.48040  0.43411  1.0000
  C   C1143     1.0  0.35432  0.46248  0.42877  1.0000
  C   C1144     1.0  0.33703  0.44692  0.42619  1.0000
  H   H2017     1.0  0.48525  0.43869  0.34268  1.0000
  H   H2018     1.0  0.36081  0.46511  0.98891  1.0000
  H   H2019     1.0  0.36739  0.46059  0.42655  1.0000
  H   H2020     1.0  0.33706  0.43318  0.42201  1.0000
  C   C1145     1.0  0.48192  0.35897  0.26837  1.0000
  C   C1146     1.0  0.48422  0.34229  0.27505  1.0000
  C   C1147     1.0  0.46859  0.32532  0.27807  1.0000
  C   C1148     1.0  0.45034  0.32472  0.27426  1.0000
  C   C1149     1.0  0.44804  0.34138  0.26744  1.0000
  C   C1150     1.0  0.46367  0.35837  0.26451  1.0000
  H   H2021     1.0  0.49823  0.34250  0.27803  1.0000
  H   H2022     1.0  0.47068  0.31271  0.28331  1.0000
  H   H2023     1.0  0.43403  0.34114  0.26439  1.0000
  H   H2024     1.0  0.46159  0.37098  0.25928  1.0000
  C   C1151     1.0  0.56016  0.45538  0.16207  1.0000
  C   C1152     1.0  0.54264  0.44628  0.14956  1.0000
  C   C1153     1.0  0.54017  0.44876  0.12261  1.0000
  C   C1154     1.0  0.55509  0.46052  0.10778  1.0000
  C   C1155     1.0  0.57265  0.46965  0.12026  1.0000
  C   C1156     1.0  0.57517  0.46699  0.14721  1.0000
  H   H2025     1.0  0.53105  0.43712  0.16061  1.0000
  H   H2026     1.0  0.52658  0.44148  0.11315  1.0000
  H   H2027     1.0  0.53851  0.47844  0.16966  1.0000
  H   H2028     1.0  0.46195  0.26834  0.22414  1.0000
  C   C1157     1.0  0.55230  0.46078  0.35492  1.0000
  C   C1158     1.0  0.54502  0.44265  0.36479  1.0000
  C   C1159     1.0  0.54839  0.43956  0.39128  1.0000
  C   C1160     1.0  0.55863  0.45458  0.40839  1.0000
  C   C1161     1.0  0.56554  0.47273  0.39863  1.0000
  C   C1162     1.0  0.56259  0.47575  0.37201  1.0000
  H   H2029     1.0  0.53695  0.43099  0.35204  1.0000
  H   H2030     1.0  0.54297  0.42546  0.39863  1.0000
  H   H2031     1.0  0.42869  0.25451  0.19497  1.0000
  H   H2032     1.0  0.51370  0.46233  0.35739  1.0000
  C   C1163     1.0  0.45605  0.28362  0.45005  1.0000
  H   H2033     1.0  0.53297  0.39275  0.32537  1.0000
  H   H2034     1.0  0.32392  0.48267  0.30674  1.0000
  C   C1164     1.0  0.61049  0.47087  0.37440  1.0000
  H   H2035     1.0  0.55209  0.38489  0.32271  1.0000
  C   C1165     1.0  0.51148  0.44261  0.46225  1.0000
  H   H2036     1.0  0.48613  0.46745  0.37063  1.0000
  C   C1166     1.0  0.31973  0.44890  0.42898  1.0000
  C   C1167     1.0  0.51446  0.46987  0.37625  1.0000
  H   H2037     1.0  0.45167  0.25618  0.43348  1.0000
  H   H2038     1.0  0.59022  0.47372  0.24888  1.0000
  C   C1168     1.0  0.43132  0.24559  0.18060  1.0000
  H   H2039     1.0  0.34084  0.47848  0.33987  1.0000
  H   H2040     1.0  0.48602  0.45521  0.43723  1.0000
  H   H2041     1.0  0.51940  0.48672  0.99015  1.0000
  H   H2042     1.0  0.48717  0.40004  0.35304  1.0000
  H   H2043     1.0  0.50679  0.45110  0.47588  1.0000
  H   H2044     1.0  0.43211  0.26347  0.14800  1.0000
  H   H2045     1.0  0.47142  0.48811  0.20761  1.0000
  N   N64       1.0  0.45546  0.31380  0.18660  1.0000
  C   C1169     1.0  0.43769  0.31098  0.20078  1.0000
  C   C1170     1.0  0.46983  0.33298  0.19380  1.0000
  C   C1171     1.0  0.45092  0.31182  0.15754  1.0000
  C   C1172     1.0  0.46328  0.29931  0.19409  1.0000
  C   C1173     1.0  0.46775  0.29828  0.22361  1.0000
  C   C1174     1.0  0.42262  0.29073  0.20024  1.0000
  C   C1175     1.0  0.46794  0.31752  0.13932  1.0000
  C   C1176     1.0  0.46467  0.34973  0.18548  1.0000
  C   C1177     1.0  0.48104  0.36837  0.19100  1.0000
  C   C1178     1.0  0.47373  0.28188  0.22881  1.0000
  C   C1179     1.0  0.40385  0.29028  0.20982  1.0000
  C   C1180     1.0  0.46141  0.31386  0.11060  1.0000
  H   H2046     1.0  0.43092  0.32023  0.19260  1.0000
  H   H2047     1.0  0.44086  0.31551  0.22165  1.0000
  H   H2048     1.0  0.47221  0.33451  0.21542  1.0000
  H   H2049     1.0  0.48373  0.33485  0.18588  1.0000
  H   H2050     1.0  0.44224  0.31991  0.15178  1.0000
  H   H2051     1.0  0.44201  0.29705  0.15222  1.0000
  H   H2052     1.0  0.45369  0.28514  0.18706  1.0000
  H   H2053     1.0  0.47666  0.30195  0.18414  1.0000
  H   H2054     1.0  0.45548  0.29639  0.23571  1.0000
  H   H2055     1.0  0.47952  0.31125  0.23036  1.0000
  H   H2056     1.0  0.42012  0.28437  0.18031  1.0000
  H   H2057     1.0  0.42714  0.28178  0.21334  1.0000
  H   H2058     1.0  0.47678  0.30937  0.14338  1.0000
  H   H2059     1.0  0.47683  0.33264  0.14168  1.0000
  H   H2060     1.0  0.46098  0.34912  0.16432  1.0000
  H   H2061     1.0  0.45258  0.34989  0.19668  1.0000
  H   H2062     1.0  0.48505  0.36997  0.21213  1.0000
  H   H2063     1.0  0.49340  0.36927  0.17956  1.0000
  H   H2064     1.0  0.47690  0.38015  0.18544  1.0000
  H   H2065     1.0  0.33999  0.47138  0.37337  1.0000
  C   C1181     1.0  0.63260  0.43350  0.26882  1.0000
  H   H2066     1.0  0.47787  0.28204  0.24979  1.0000
  H   H2067     1.0  0.40550  0.29638  0.22992  1.0000
  H   H2068     1.0  0.39813  0.29823  0.19653  1.0000
  H   H2069     1.0  0.39362  0.27555  0.21025  1.0000
  H   H2070     1.0  0.47380  0.31818  0.09794  1.0000
  H   H2071     1.0  0.45310  0.29868  0.10689  1.0000
  H   H2072     1.0  0.45276  0.32199  0.10510  1.0000
  H   H2073     1.0  0.46623  0.41841  0.35415  1.0000
  H   H2074     1.0  0.37638  0.48474  0.05344  1.0000
  H   H2075     1.0  0.31786  0.44943  0.34440  1.0000
  H   H2076     1.0  0.48655  0.47103  0.16666  1.0000
  H   H2077     1.0  0.50000  0.43903  0.15606  1.0000
  Fe  Fe133     1.0  0.57338  0.47245  0.47407  1.0000
  C   C1182     1.0  0.52369  0.49088  0.37126  1.0000
  H   H2078     1.0  0.50202  0.28134  0.37270  1.0000
  C   C1183     1.0  0.48932  0.44456  0.42602  1.0000
  H   H2079     1.0  0.64282  0.44825  0.27011  1.0000
  H   H2080     1.0  0.50499  0.43445  0.38222  1.0000
  C   C1184     1.0  0.47778  0.27118  0.39772  1.0000
  H   H2081     1.0  0.57347  0.48443  0.41147  1.0000
  C   C1185     1.0  0.48172  0.42581  0.35435  1.0000
  C   C1186     1.0  0.32004  0.46684  0.43429  1.0000
  H   H2082     1.0  0.48431  0.41714  0.39366  1.0000
  C   C1187     1.0  0.48897  0.27857  0.42392  1.0000
  C   C1188     1.0  0.48945  0.41258  0.34102  1.0000
  H   H2083     1.0  0.49549  0.47538  0.40249  1.0000
  H   H2084     1.0  0.60095  0.47849  0.37174  1.0000
  H   H2085     1.0  0.62384  0.45644  0.35135  1.0000
  N   N65       1.0  0.48479  0.44523  0.39723  1.0000
  H   H2086     1.0  0.62426  0.48099  0.38206  1.0000
  H   H2087     1.0  0.36325  0.47990  0.09942  1.0000
  C   C1189     1.0  0.49660  0.48805  0.22666  1.0000
  H   H2088     1.0  0.48593  0.28294  0.21690  1.0000
  H   H2089     1.0  0.47023  0.49141  0.02543  1.0000
  H   H2090     1.0  0.58428  0.47870  0.10915  1.0000
  H   H2091     1.0  0.50226  0.47601  0.28516  1.0000
  S   S265      1.0  0.44552  0.25889  0.28318  1.0000
  H   H2092     1.0  0.62300  0.45425  0.30381  1.0000
  H   H2093     1.0  0.46261  0.29278  0.43353  1.0000
  H   H2094     1.0  0.48208  0.40770  0.32179  1.0000
  H   H2095     1.0  0.60908  0.44077  0.25954  1.0000
  H   H2096     1.0  0.51989  0.28743  0.45881  1.0000
  H   H2097     1.0  0.47977  0.27682  0.35623  1.0000
  H   H2098     1.0  0.48019  0.43073  0.43386  1.0000
  H   H2099     1.0  0.43440  0.45191  0.38121  1.0000
  H   H2100     1.0  0.46385  0.27227  0.39784  1.0000
  S   S266      1.0  0.41002  0.25684  0.31963  1.0000
  H   H2101     1.0  0.54348  0.39333  0.29426  1.0000
  H   H2102     1.0  0.63699  0.42494  0.28286  1.0000
  H   H2103     1.0  0.61299  0.47423  0.28507  1.0000
  C   C1190     1.0  0.59057  0.48067  0.26814  1.0000
  C   C1191     1.0  0.43326  0.25059  0.15403  1.0000
  H   H2104     1.0  0.51213  0.26664  0.47819  1.0000
  C   C1192     1.0  0.43536  0.44825  0.40201  1.0000
  C   C1193     1.0  0.45570  0.45220  0.41030  1.0000
  C   C1194     1.0  0.49455  0.46478  0.38698  1.0000
  H   H2105     1.0  0.45980  0.44104  0.37349  1.0000
  H   H2106     1.0  0.49018  0.29742  0.37692  1.0000
  C   C1195     1.0  0.49801  0.46613  0.16266  1.0000
  H   H2107     1.0  0.58882  0.47403  0.15663  1.0000
  C   C1196     1.0  0.48960  0.43055  0.38285  1.0000
  C   C1197     1.0  0.48175  0.48696  0.29884  1.0000
  H   H2108     1.0  0.51880  0.46325  0.43242  1.0000
  H   H2109     1.0  0.39993  0.24558  0.11999  1.0000
  C   C1198     1.0  0.61294  0.46242  0.34827  1.0000
  H   H2110     1.0  0.48169  0.43868  0.17749  1.0000
  H   H2111     1.0  0.49140  0.29368  0.42611  1.0000
  H   H2112     1.0  0.45583  0.44916  0.43148  1.0000
  H   H2113     1.0  0.57224  0.45020  0.29805  1.0000
  C   C1199     1.0  0.46382  0.44000  0.39430  1.0000
  C   C1200     1.0  0.48817  0.28246  0.37458  1.0000
  H   H2114     1.0  0.46391  0.46732  0.40753  1.0000
  H   H2115     1.0  0.45613  0.42512  0.39977  1.0000
  C   C1201     1.0  0.50994  0.44811  0.43391  1.0000
  H   H2116     1.0  0.51882  0.46873  0.13357  1.0000
  N   N66       1.0  0.59323  0.43966  0.31045  1.0000
  C   C1202     1.0  0.61204  0.43990  0.30253  1.0000
  C   C1203     1.0  0.31904  0.48321  0.36312  1.0000
  C   C1204     1.0  0.57937  0.41951  0.30888  1.0000
  C   C1205     1.0  0.58612  0.45078  0.29203  1.0000
  N   N67       1.0  0.48035  0.26800  0.44812  1.0000
  C   C1206     1.0  0.61285  0.43239  0.27450  1.0000
  C   C1207     1.0  0.56030  0.41525  0.32221  1.0000
  C   C1208     1.0  0.38798  0.46385  0.98774  1.0000
  H   H2117     1.0  0.50467  0.41988  0.33775  1.0000
  H   H2118     1.0  0.52375  0.46616  0.38989  1.0000
  H   H2119     1.0  0.60716  0.44763  0.98822  1.0000
  C   C1209     1.0  0.54645  0.39533  0.31570  1.0000
  H   H2120     1.0  0.61682  0.43156  0.31658  1.0000
  C   C1210     1.0  0.49086  0.27904  0.47196  1.0000
  C   C1211     1.0  0.59430  0.44672  0.33842  1.0000
  H   H2121     1.0  0.59225  0.43513  0.35235  1.0000
  H   H2122     1.0  0.58564  0.41007  0.31790  1.0000
  H   H2123     1.0  0.57596  0.41473  0.28808  1.0000
  H   H2124     1.0  0.58346  0.44435  0.27202  1.0000
  H   H2125     1.0  0.50980  0.48505  0.08454  1.0000
  H   H2126     1.0  0.62746  0.46925  0.99060  1.0000
  H   H2127     1.0  0.52631  0.44502  0.46726  1.0000
  H   H2128     1.0  0.60324  0.41750  0.27200  1.0000
  C   C1212     1.0  0.33733  0.48242  0.43679  1.0000
  H   H2129     1.0  0.55366  0.42498  0.31593  1.0000
  H   H2130     1.0  0.56220  0.41649  0.34383  1.0000
  H   H2131     1.0  0.47561  0.25635  0.39387  1.0000
  H   H2132     1.0  0.31479  0.48655  0.98913  1.0000
  C   C1213     1.0  0.46004  0.26540  0.44976  1.0000
  H   H2133     1.0  0.34391  0.48059  0.00108  1.0000
  H   H2134     1.0  0.50296  0.42751  0.46493  1.0000
  S   S267      1.0  0.46327  0.48911  0.45433  1.0000
  H   H2135     1.0  0.47392  0.48491  0.27978  1.0000
  H   H2136     1.0  0.47130  0.48337  0.31434  1.0000
  H   H2137     1.0  0.56835  0.48984  0.36465  1.0000
  S   S268      1.0  0.40366  0.25095  0.25609  1.0000
  H   H2138     1.0  0.38282  0.24476  0.14382  1.0000
  H   H2139     1.0  0.42996  0.45695  0.41426  1.0000
  H   H2140     1.0  0.58261  0.45149  0.34183  1.0000
  H   H2141     1.0  0.46148  0.29160  0.46865  1.0000
  H   H2142     1.0  0.49143  0.29364  0.47126  1.0000
  H   H2143     1.0  0.48059  0.45848  0.29556  1.0000
  H   H2144     1.0  0.61841  0.47396  0.33432  1.0000
  C   C1214     1.0  0.59833  0.47184  0.28977  1.0000
  H   H2145     1.0  0.43239  0.29229  0.45036  1.0000
  C   C1215     1.0  0.51142  0.28061  0.47578  1.0000
  H   H2146     1.0  0.31811  0.48527  0.38460  1.0000
  C   C1216     1.0  0.48154  0.24896  0.44668  1.0000
  H   H2147     1.0  0.35223  0.47559  0.04381  1.0000
  H   H2148     1.0  0.57615  0.47950  0.27264  1.0000
  H   H2149     1.0  0.49605  0.25027  0.44237  1.0000
  H   H2150     1.0  0.45390  0.25792  0.46788  1.0000
  C   C1217     1.0  0.35348  0.48670  0.09335  1.0000
  H   H2151     1.0  0.41597  0.24407  0.37841  1.0000
  H   H2152     1.0  0.60458  0.45980  0.38912  1.0000
  C   C1218     1.0  0.36471  0.48894  0.04666  1.0000
  H   H2153     1.0  0.40095  0.46733  0.00012  1.0000
  H   H2154     1.0  0.33958  0.47575  0.08781  1.0000
  H   H2155     1.0  0.49760  0.47293  0.31958  1.0000
  C   C1219     1.0  0.49695  0.48762  0.46992  1.0000
  C   C1220     1.0  0.38160  0.49139  0.00610  1.0000
  C   C1221     1.0  0.33860  0.48215  0.36013  1.0000
  C   C1222     1.0  0.37373  0.46981  0.00153  1.0000
  H   H2156     1.0  0.38189  0.44849  0.98389  1.0000
  H   H2157     1.0  0.42749  0.26935  0.46349  1.0000
  Fe  Fe134     1.0  0.50552  0.44672  0.74993  1.0000
  S   S269      1.0  0.53585  0.46492  0.75358  1.0000
  S   S270      1.0  0.48525  0.46112  0.74052  1.0000
  Fe  Fe135     1.0  0.51308  0.41077  0.75876  1.0000
  S   S271      1.0  0.54450  0.42776  0.76251  1.0000
  S   S272      1.0  0.50467  0.37861  0.76149  1.0000
  Fe  Fe136     1.0  0.53690  0.44753  0.78824  1.0000
  S   S273      1.0  0.55265  0.46590  0.82364  1.0000
  Fe  Fe137     1.0  0.54065  0.44377  0.72741  1.0000
  S   S274      1.0  0.56233  0.45673  0.69548  1.0000
  S   S275      1.0  0.50584  0.43015  0.78608  1.0000
  S   S276      1.0  0.50992  0.42588  0.72219  1.0000
  H   H2158     1.0  0.49036  0.35577  0.86700  1.0000
  S   S277      1.0  0.56146  0.45014  0.94477  1.0000
  Fe  Fe138     1.0  0.57137  0.47925  0.53450  1.0000
  S   S278      1.0  0.55640  0.46306  0.57051  1.0000
  S   S279      1.0  0.55194  0.47633  0.49968  1.0000
  S   S280      1.0  0.59159  0.47234  0.50931  1.0000
  N   N68       1.0  0.45646  0.29872  0.88097  1.0000
  H   H2159     1.0  0.39469  0.48900  0.83029  1.0000
  H   H2160     1.0  0.45805  0.32671  0.89010  1.0000
  S   S281      1.0  0.41164  0.25442  0.81915  1.0000
  C   C1223     1.0  0.61925  0.45726  0.97738  1.0000
  H   H2161     1.0  0.54289  0.43089  0.85281  1.0000
  Fe  Fe139     1.0  0.42694  0.27200  0.78550  1.0000
  S   S282      1.0  0.43362  0.30373  0.78700  1.0000
  S   S283      1.0  0.44828  0.25881  0.78398  1.0000
  C   C1224     1.0  0.46887  0.28445  0.84244  1.0000
  H   H2162     1.0  0.63983  0.49175  0.66863  1.0000
  H   H2163     1.0  0.48391  0.29734  0.87850  1.0000
  H   H2164     1.0  0.45558  0.27256  0.83720  1.0000
  C   C1225     1.0  0.62857  0.47711  0.93694  1.0000
  H   H2165     1.0  0.32322  0.46712  0.82795  1.0000
  H   H2166     1.0  0.61936  0.49130  0.55675  1.0000
  C   C1226     1.0  0.60299  0.45397  0.57863  1.0000
  H   H2167     1.0  0.46645  0.35383  0.86056  1.0000
  C   C1227     1.0  0.35514  0.46643  0.93258  1.0000
  C   C1228     1.0  0.33817  0.45049  0.93248  1.0000
  C   C1229     1.0  0.32008  0.47629  0.84227  1.0000
  H   H2168     1.0  0.40920  0.29442  0.83379  1.0000
  H   H2169     1.0  0.36840  0.46476  0.93162  1.0000
  H   H2170     1.0  0.33860  0.43667  0.93156  1.0000
  C   C1230     1.0  0.48478  0.35807  0.76939  1.0000
  C   C1231     1.0  0.48673  0.34064  0.77032  1.0000
  C   C1232     1.0  0.47136  0.32392  0.77573  1.0000
  C   C1233     1.0  0.45372  0.32436  0.78036  1.0000
  C   C1234     1.0  0.45183  0.34179  0.77984  1.0000
  C   C1235     1.0  0.46718  0.35850  0.77435  1.0000
  H   H2171     1.0  0.50028  0.34010  0.76685  1.0000
  H   H2172     1.0  0.47321  0.31075  0.77647  1.0000
  H   H2173     1.0  0.43832  0.34239  0.78350  1.0000
  H   H2174     1.0  0.46537  0.37170  0.77380  1.0000
  C   C1236     1.0  0.56008  0.45832  0.66078  1.0000
  C   C1237     1.0  0.57369  0.47318  0.64785  1.0000
  C   C1238     1.0  0.57270  0.47499  0.62041  1.0000
  C   C1239     1.0  0.55821  0.46179  0.60535  1.0000
  C   C1240     1.0  0.54447  0.44705  0.61830  1.0000
  C   C1241     1.0  0.54539  0.44529  0.64577  1.0000
  H   H2175     1.0  0.58494  0.48348  0.65925  1.0000
  H   H2176     1.0  0.47024  0.29906  0.60114  1.0000
  H   H2177     1.0  0.53314  0.43673  0.60696  1.0000
  H   H2178     1.0  0.53492  0.43364  0.65526  1.0000
  C   C1242     1.0  0.55378  0.46088  0.85737  1.0000
  C   C1243     1.0  0.56103  0.47594  0.87548  1.0000
  C   C1244     1.0  0.56277  0.47282  0.90237  1.0000
  C   C1245     1.0  0.55781  0.45460  0.91144  1.0000
  C   C1246     1.0  0.55060  0.43953  0.89335  1.0000
  C   C1247     1.0  0.54838  0.44261  0.86650  1.0000
  H   H2179     1.0  0.46402  0.27667  0.61643  1.0000
  H   H2180     1.0  0.49879  0.29022  0.84039  1.0000
  H   H2181     1.0  0.54676  0.42536  0.90013  1.0000
  H   H2182     1.0  0.60405  0.44004  0.57865  1.0000
  C   C1248     1.0  0.47121  0.32823  0.85258  1.0000
  C   C1249     1.0  0.40605  0.29233  0.85488  1.0000
  H   H2183     1.0  0.43006  0.31606  0.86823  1.0000
  H   H2184     1.0  0.49569  0.45666  0.89094  1.0000
  S   S284      1.0  0.40726  0.25192  0.75528  1.0000
  H   H2185     1.0  0.45277  0.29677  0.96358  1.0000
  C   C1250     1.0  0.51794  0.48240  0.90766  1.0000
  C   C1251     1.0  0.42806  0.24461  0.64957  1.0000
  H   H2186     1.0  0.48990  0.46513  0.92108  1.0000
  C   C1252     1.0  0.44584  0.48130  0.80351  1.0000
  H   H2187     1.0  0.49017  0.27745  0.75521  1.0000
  C   C1253     1.0  0.48627  0.26719  0.73858  1.0000
  H   H2188     1.0  0.51209  0.48676  0.52906  1.0000
  C   C1254     1.0  0.50139  0.46325  0.91022  1.0000
  H   H2189     1.0  0.52110  0.48807  0.92815  1.0000
  H   H2190     1.0  0.54116  0.49058  0.60655  1.0000
  H   H2191     1.0  0.43114  0.27633  0.86705  1.0000
  H   H2192     1.0  0.42411  0.25006  0.69028  1.0000
  H   H2193     1.0  0.48778  0.29392  0.61974  1.0000
  H   H2194     1.0  0.51294  0.28575  0.51798  1.0000
  H   H2195     1.0  0.53039  0.47963  0.90169  1.0000
  H   H2196     1.0  0.48165  0.35520  0.83382  1.0000
  H   H2197     1.0  0.53532  0.29324  0.50262  1.0000
  C   C1255     1.0  0.33448  0.48029  0.86558  1.0000
  H   H2198     1.0  0.62669  0.45797  0.87406  1.0000
  N   N69       1.0  0.46626  0.29692  0.69393  1.0000
  H   H2199     1.0  0.42932  0.48154  0.75675  1.0000
  C   C1256     1.0  0.46813  0.28455  0.71578  1.0000
  C   C1257     1.0  0.44615  0.29548  0.69236  1.0000
  C   C1258     1.0  0.47852  0.31721  0.69944  1.0000
  C   C1259     1.0  0.49992  0.32226  0.70132  1.0000
  C   C1260     1.0  0.46744  0.29999  0.64325  1.0000
  C   C1261     1.0  0.43776  0.29880  0.71835  1.0000
  H   H2200     1.0  0.63715  0.48874  0.95055  1.0000
  H   H2201     1.0  0.49766  0.26187  0.73630  1.0000
  C   C1262     1.0  0.51062  0.34351  0.70257  1.0000
  H   H2202     1.0  0.46571  0.46073  0.82378  1.0000
  C   C1263     1.0  0.41703  0.29549  0.71443  1.0000
  H   H2203     1.0  0.58628  0.43179  0.88606  1.0000
  H   H2204     1.0  0.47325  0.25511  0.74303  1.0000
  H   H2205     1.0  0.47032  0.29215  0.73498  1.0000
  H   H2206     1.0  0.46155  0.27478  0.66534  1.0000
  H   H2207     1.0  0.43686  0.28150  0.68433  1.0000
  H   H2208     1.0  0.44460  0.30585  0.67851  1.0000
  H   H2209     1.0  0.47563  0.32635  0.68470  1.0000
  H   H2210     1.0  0.47495  0.32194  0.71844  1.0000
  H   H2211     1.0  0.50501  0.31686  0.68425  1.0000
  H   H2212     1.0  0.50357  0.31658  0.71959  1.0000
  H   H2213     1.0  0.45250  0.29804  0.64048  1.0000
  H   H2214     1.0  0.47622  0.31518  0.64442  1.0000
  H   H2215     1.0  0.44509  0.31343  0.72560  1.0000
  H   H2216     1.0  0.43873  0.28924  0.73385  1.0000
  H   H2217     1.0  0.51354  0.45564  0.94520  1.0000
  H   H2218     1.0  0.49727  0.28701  0.70829  1.0000
  C   C1264     1.0  0.52506  0.48181  0.65615  1.0000
  C   C1265     1.0  0.46843  0.29667  0.92854  1.0000
  C   C1266     1.0  0.50923  0.47189  0.67541  1.0000
  H   H2219     1.0  0.50827  0.34997  0.68419  1.0000
  H   H2220     1.0  0.50608  0.34986  0.71931  1.0000
  H   H2221     1.0  0.52589  0.34682  0.70520  1.0000
  H   H2222     1.0  0.31803  0.44068  0.85754  1.0000
  H   H2223     1.0  0.60090  0.49102  0.92900  1.0000
  H   H2224     1.0  0.33016  0.46869  0.87967  1.0000
  H   H2225     1.0  0.40881  0.28081  0.70789  1.0000
  H   H2226     1.0  0.41142  0.29801  0.73328  1.0000
  H   H2227     1.0  0.41521  0.30525  0.69979  1.0000
  H   H2228     1.0  0.36402  0.48663  0.87359  1.0000
  H   H2229     1.0  0.60328  0.47174  0.95973  1.0000
  H   H2230     1.0  0.56809  0.48450  0.91608  1.0000
  C   C1267     1.0  0.46911  0.28904  0.87206  1.0000
  C   C1268     1.0  0.50793  0.47604  0.84738  1.0000
  H   H2231     1.0  0.42379  0.25550  0.64221  1.0000
  H   H2232     1.0  0.44369  0.30139  0.91744  1.0000
  H   H2233     1.0  0.59491  0.45500  0.59587  1.0000
  C   C1269     1.0  0.43826  0.29176  0.86504  1.0000
  S   S285      1.0  0.46143  0.49069  0.95504  1.0000
  C   C1270     1.0  0.48353  0.27630  0.71327  1.0000
  H   H2234     1.0  0.48506  0.29072  0.66775  1.0000
  H   H2235     1.0  0.46967  0.29625  0.82983  1.0000
  H   H2236     1.0  0.62815  0.44951  0.97179  1.0000
  H   H2237     1.0  0.43156  0.47074  0.80729  1.0000
  H   H2238     1.0  0.47368  0.29206  0.96934  1.0000
  H   H2239     1.0  0.48470  0.48151  0.88627  1.0000
  H   H2240     1.0  0.47991  0.32439  0.89140  1.0000
  C   C1271     1.0  0.49410  0.48868  0.97452  1.0000
  H   H2241     1.0  0.64775  0.48417  0.89346  1.0000
  C   C1272     1.0  0.50030  0.45088  0.66944  1.0000
  C   C1273     1.0  0.33736  0.48617  0.93461  1.0000
  H   H2242     1.0  0.47729  0.31181  0.93068  1.0000
  H   H2243     1.0  0.48447  0.27503  0.81469  1.0000
  H   H2244     1.0  0.48924  0.44408  0.68376  1.0000
  H   H2245     1.0  0.44712  0.46304  0.77081  1.0000
  C   C1274     1.0  0.60909  0.46956  0.89556  1.0000
  H   H2246     1.0  0.63055  0.46707  0.56322  1.0000
  H   H2247     1.0  0.45901  0.32300  0.83867  1.0000
  C   C1275     1.0  0.42401  0.30078  0.87180  1.0000
  C   C1276     1.0  0.35487  0.48441  0.93376  1.0000
  H   H2248     1.0  0.50493  0.48869  0.81037  1.0000
  H   H2249     1.0  0.51100  0.44458  0.67103  1.0000
  H   H2250     1.0  0.47932  0.26524  0.69762  1.0000
  H   H2251     1.0  0.59518  0.45497  0.56055  1.0000
  C   C1277     1.0  0.47782  0.34956  0.85372  1.0000
  H   H2252     1.0  0.63771  0.46935  0.93245  1.0000
  H   H2253     1.0  0.39893  0.27711  0.85852  1.0000
  H   H2254     1.0  0.51236  0.46455  0.85359  1.0000
  C   C1278     1.0  0.48512  0.27860  0.83585  1.0000
  H   H2255     1.0  0.50203  0.46454  0.80770  1.0000
  H   H2256     1.0  0.53593  0.47581  0.65863  1.0000
  C   C1279     1.0  0.45112  0.49207  0.54386  1.0000
  H   H2257     1.0  0.46525  0.27515  0.88157  1.0000
  C   C1280     1.0  0.45163  0.29342  0.90907  1.0000
  H   H2258     1.0  0.45303  0.48550  0.82307  1.0000
  H   H2259     1.0  0.48425  0.26607  0.84711  1.0000
  H   H2260     1.0  0.52292  0.48619  0.48363  1.0000
  H   H2261     1.0  0.47101  0.48395  0.70957  1.0000
  H   H2262     1.0  0.45310  0.27415  0.95475  1.0000
  H   H2263     1.0  0.49521  0.43637  0.92854  1.0000
  H   H2264     1.0  0.44349  0.44432  0.81052  1.0000
  C   C1281     1.0  0.45753  0.45467  0.80550  1.0000
  C   C1282     1.0  0.35408  0.48316  0.85642  1.0000
  H   H2265     1.0  0.45483  0.27199  0.71741  1.0000
  C   C1283     1.0  0.47043  0.28995  0.66806  1.0000
  H   H2266     1.0  0.48320  0.27319  0.49008  1.0000
  H   H2267     1.0  0.60274  0.42626  0.86668  1.0000
  H   H2268     1.0  0.59544  0.46367  0.90541  1.0000
  C   C1284     1.0  0.50749  0.44958  0.92565  1.0000
  H   H2269     1.0  0.40752  0.48141  0.51971  1.0000
  H   H2270     1.0  0.49375  0.44812  0.64945  1.0000
  C   C1285     1.0  0.46636  0.31973  0.88007  1.0000
  C   C1286     1.0  0.61204  0.46414  0.95310  1.0000
  H   H2271     1.0  0.44067  0.29388  0.84381  1.0000
  H   H2272     1.0  0.35402  0.47018  0.84686  1.0000
  H   H2273     1.0  0.46972  0.47906  0.78224  1.0000
  H   H2274     1.0  0.39629  0.29929  0.85975  1.0000
  H   H2275     1.0  0.41980  0.29849  0.89244  1.0000
  H   H2276     1.0  0.47736  0.28917  0.92214  1.0000
  H   H2277     1.0  0.44225  0.27832  0.91000  1.0000
  H   H2278     1.0  0.60297  0.45156  0.94161  1.0000
  C   C1287     1.0  0.47273  0.29189  0.61871  1.0000
  C   C1288     1.0  0.45558  0.47005  0.78856  1.0000
  H   H2279     1.0  0.42620  0.48893  0.83970  1.0000
  H   H2280     1.0  0.51897  0.47739  0.63608  1.0000
  H   H2281     1.0  0.46498  0.44723  0.79455  1.0000
  H   H2282     1.0  0.48290  0.32495  0.84468  1.0000
  H   H2283     1.0  0.41424  0.48937  0.79177  1.0000
  C   C1289     1.0  0.32039  0.47023  0.93466  1.0000
  C   C1290     1.0  0.59837  0.43773  0.87300  1.0000
  H   H2284     1.0  0.59378  0.44337  0.85538  1.0000
  H   H2285     1.0  0.42265  0.49137  0.71326  1.0000
  C   C1291     1.0  0.32067  0.45224  0.93351  1.0000
  H   H2286     1.0  0.38174  0.48426  0.54575  1.0000
  C   C1292     1.0  0.61472  0.45309  0.88744  1.0000
  N   N70       1.0  0.62328  0.48484  0.91233  1.0000
  H   H2287     1.0  0.61730  0.48063  0.63028  1.0000
  H   H2288     1.0  0.44355  0.47951  0.53127  1.0000
  H   H2289     1.0  0.40827  0.24389  0.92227  1.0000
  H   H2290     1.0  0.61874  0.44665  0.90462  1.0000
  C   C1293     1.0  0.46151  0.28948  0.95566  1.0000
  H   H2291     1.0  0.51811  0.44617  0.91481  1.0000
  H   H2292     1.0  0.38539  0.26066  0.61301  1.0000
  H   H2293     1.0  0.61695  0.49149  0.67523  1.0000
  C   C1294     1.0  0.49410  0.48564  0.73539  1.0000
  H   H2294     1.0  0.51856  0.49227  0.76067  1.0000
  C   C1295     1.0  0.62262  0.46943  0.57985  1.0000
  H   H2295     1.0  0.39171  0.47098  0.96872  1.0000
  H   H2296     1.0  0.60592  0.47533  0.87701  1.0000
  H   H2297     1.0  0.62980  0.46795  0.59826  1.0000
  H   H2298     1.0  0.36612  0.47678  0.51746  1.0000
  C   C1296     1.0  0.52065  0.29233  0.50027  1.0000
  C   C1297     1.0  0.51020  0.47810  0.81778  1.0000
  C   C1298     1.0  0.38545  0.24652  0.60910  1.0000
  H   H2299     1.0  0.38727  0.45976  0.52054  1.0000
  H   H2300     1.0  0.51478  0.47379  0.69590  1.0000
  H   H2301     1.0  0.45320  0.48739  0.56375  1.0000
  H   H2302     1.0  0.49786  0.47730  0.67402  1.0000
  H   H2303     1.0  0.54723  0.48540  0.70062  1.0000
  H   H2304     1.0  0.58305  0.48662  0.61092  1.0000
  Fe  Fe140     1.0  0.56970  0.47178  0.97843  1.0000
  C   C1299     1.0  0.39257  0.47431  0.51327  1.0000
  C   C1300     1.0  0.62190  0.48919  0.57785  1.0000
  H   H2305     1.0  0.39153  0.47365  0.49152  1.0000
  C   C1301     1.0  0.38087  0.48470  0.52410  1.0000
  H   H2306     1.0  0.49286  0.47187  0.85100  1.0000
  H   H2307     1.0  0.40001  0.24807  0.60484  1.0000
  H   H2308     1.0  0.52515  0.48237  0.81269  1.0000
  H   H2309     1.0  0.60911  0.48887  0.58747  1.0000
  H   H2310     1.0  0.45379  0.49227  0.75255  1.0000
  H   H2311     1.0  0.32331  0.48978  0.83197  1.0000
  H   H2312     1.0  0.56534  0.49012  0.86860  1.0000
  H   H2313     1.0  0.52709  0.48976  0.55749  1.0000
  H   H2314     1.0  0.48573  0.47400  0.97729  1.0000
  H   H2315     1.0  0.48238  0.24389  0.48930  1.0000
  H   H2316     1.0  0.52091  0.30676  0.49866  1.0000
  Fe  Fe141     1.0  0.50226  0.56751  0.20258  1.0000
  S   S286      1.0  0.47173  0.55113  0.19552  1.0000
  S   S287      1.0  0.52084  0.55178  0.21390  1.0000
  Fe  Fe142     1.0  0.49800  0.60545  0.19462  1.0000
  S   S288      1.0  0.46668  0.59021  0.18664  1.0000
  S   S289      1.0  0.50740  0.63777  0.19846  1.0000
  Fe  Fe143     1.0  0.46756  0.57264  0.22138  1.0000
  S   S290      1.0  0.44588  0.56326  0.25340  1.0000
  Fe  Fe144     1.0  0.47422  0.57014  0.16139  1.0000
  S   S291      1.0  0.46066  0.55280  0.12415  1.0000
  S   S292      1.0  0.49812  0.58830  0.23029  1.0000
  S   S293      1.0  0.50541  0.58602  0.16757  1.0000
  H   H2317     1.0  0.49547  0.51707  0.39065  1.0000
  S   S294      1.0  0.58307  0.50956  0.03511  1.0000
  Fe  Fe145     1.0  0.56429  0.50621  0.99909  1.0000
  H   H2318     1.0  0.50015  0.53385  0.06438  1.0000
  C   C1302     1.0  0.51484  0.49928  0.23529  1.0000
  H   H2319     1.0  0.52558  0.58513  0.12034  1.0000
  Fe  Fe146     1.0  0.40847  0.51072  0.43715  1.0000
  S   S295      1.0  0.42282  0.54233  0.43426  1.0000
  C   C1303     1.0  0.32208  0.50143  0.99557  1.0000
  Fe  Fe147     1.0  0.44691  0.50756  0.44569  1.0000
  S   S296      1.0  0.46256  0.53840  0.44389  1.0000
  H   H2320     1.0  0.44503  0.51172  0.23903  1.0000
  H   H2321     1.0  0.53623  0.52721  0.23792  1.0000
  S   S297      1.0  0.44995  0.56579  0.00227  1.0000
  Fe  Fe148     1.0  0.44378  0.53701  0.40878  1.0000
  S   S298      1.0  0.46111  0.55399  0.37507  1.0000
  H   H2322     1.0  0.60503  0.73301  0.11654  1.0000
  H   H2323     1.0  0.43847  0.51797  0.27022  1.0000
  S   S299      1.0  0.57589  0.71618  0.17816  1.0000
  H   H2324     1.0  0.48642  0.52821  0.11869  1.0000
  H   H2325     1.0  0.47461  0.51146  0.25888  1.0000
  H   H2326     1.0  0.54243  0.74276  0.10648  1.0000
  C   C1304     1.0  0.48262  0.61687  0.35491  1.0000
  H   H2327     1.0  0.57974  0.70732  0.09250  1.0000
  H   H2328     1.0  0.54364  0.58503  0.03639  1.0000
  H   H2329     1.0  0.49702  0.62538  0.36251  1.0000
  H   H2330     1.0  0.54940  0.69067  0.09333  1.0000
  H   H2331     1.0  0.50305  0.55768  0.46367  1.0000
  H   H2332     1.0  0.54925  0.70880  0.05661  1.0000
  H   H2333     1.0  0.47720  0.52629  0.38815  1.0000
  H   H2334     1.0  0.51203  0.69174  0.11203  1.0000
  S   S300      1.0  0.42549  0.50970  0.47340  1.0000
  C   C1305     1.0  0.54284  0.57253  0.02493  1.0000
  C   C1306     1.0  0.52663  0.65937  0.19239  1.0000
  C   C1307     1.0  0.52486  0.67647  0.19846  1.0000
  C   C1308     1.0  0.53964  0.69393  0.19428  1.0000
  C   C1309     1.0  0.55652  0.69461  0.18390  1.0000
  C   C1310     1.0  0.55821  0.67751  0.17760  1.0000
  C   C1311     1.0  0.54344  0.66006  0.18181  1.0000
  H   H2335     1.0  0.51194  0.67622  0.20651  1.0000
  H   H2336     1.0  0.53801  0.70685  0.19925  1.0000
  H   H2337     1.0  0.57114  0.67776  0.16958  1.0000
  H   H2338     1.0  0.54513  0.64715  0.17698  1.0000
  C   C1312     1.0  0.45755  0.55698  0.09049  1.0000
  C   C1313     1.0  0.46318  0.57501  0.08039  1.0000
  C   C1314     1.0  0.46061  0.57744  0.05340  1.0000
  C   C1315     1.0  0.45252  0.56193  0.03617  1.0000
  C   C1316     1.0  0.44680  0.54391  0.04629  1.0000
  C   C1317     1.0  0.44922  0.54149  0.07329  1.0000
  H   H2339     1.0  0.46946  0.58706  0.09336  1.0000
  H   H2340     1.0  0.46498  0.59144  0.04581  1.0000
  H   H2341     1.0  0.44053  0.53185  0.03334  1.0000
  H   H2342     1.0  0.44475  0.52748  0.08089  1.0000
  C   C1318     1.0  0.45043  0.56026  0.28699  1.0000
  C   C1319     1.0  0.46851  0.56805  0.29832  1.0000
  C   C1320     1.0  0.47141  0.56607  0.32531  1.0000
  C   C1321     1.0  0.45638  0.55594  0.34122  1.0000
  C   C1322     1.0  0.43835  0.54788  0.32981  1.0000
  C   C1323     1.0  0.43540  0.55021  0.30292  1.0000
  H   H2343     1.0  0.48021  0.57577  0.28635  1.0000
  H   H2344     1.0  0.48541  0.57238  0.33394  1.0000
  H   H2345     1.0  0.42664  0.54010  0.34177  1.0000
  H   H2346     1.0  0.42134  0.54417  0.29437  1.0000
  C   C1324     1.0  0.51107  0.52726  0.21880  1.0000
  C   C1325     1.0  0.49277  0.51605  0.21037  1.0000
  H   H2347     1.0  0.54154  0.52132  0.06778  1.0000
  C   C1326     1.0  0.38685  0.53213  0.00143  1.0000
  C   C1327     1.0  0.48559  0.49659  0.21427  1.0000
  C   C1328     1.0  0.52207  0.51873  0.23124  1.0000
  H   H2348     1.0  0.48412  0.52225  0.20064  1.0000
  H   H2349     1.0  0.50153  0.67279  0.30659  1.0000
  H   H2350     1.0  0.39598  0.53251  0.47578  1.0000
  H   H2351     1.0  0.52980  0.71091  0.14657  1.0000
  C   C1329     1.0  0.54207  0.69788  0.10499  1.0000
  C   C1330     1.0  0.39782  0.55264  0.00929  1.0000
  H   H2352     1.0  0.35450  0.51191  0.35400  1.0000
  H   H2353     1.0  0.48108  0.53942  0.05274  1.0000
  H   H2354     1.0  0.56419  0.56856  0.05024  1.0000
  H   H2355     1.0  0.51742  0.58555  0.04935  1.0000
  H   H2356     1.0  0.52509  0.54392  0.01743  1.0000
  H   H2357     1.0  0.52806  0.71148  0.06319  1.0000
  H   H2358     1.0  0.52511  0.65900  0.10573  1.0000
  H   H2359     1.0  0.52180  0.72240  0.10253  1.0000
  C   C1331     1.0  0.51685  0.66634  0.11494  1.0000
  C   C1332     1.0  0.50358  0.50468  0.13990  1.0000
  C   C1333     1.0  0.53003  0.50243  0.11478  1.0000
  H   H2360     1.0  0.52378  0.63500  0.30440  1.0000
  H   H2361     1.0  0.49580  0.50079  0.15834  1.0000
  H   H2362     1.0  0.52039  0.66819  0.13625  1.0000
  C   C1334     1.0  0.52088  0.68532  0.10237  1.0000
  H   H2363     1.0  0.54104  0.49781  0.06415  1.0000
  H   H2364     1.0  0.49243  0.52602  0.44426  1.0000
  H   H2365     1.0  0.56209  0.55850  0.01768  1.0000
  H   H2366     1.0  0.49477  0.57152  0.05913  1.0000
  H   H2367     1.0  0.47268  0.53383  0.26230  1.0000
  H   H2368     1.0  0.35274  0.50517  0.38797  1.0000
  C   C1335     1.0  0.49894  0.51736  0.45322  1.0000
  H   H2369     1.0  0.35145  0.50661  0.06574  1.0000
  N   N71       1.0  0.54750  0.71784  0.09640  1.0000
  H   H2370     1.0  0.51971  0.53200  0.12206  1.0000
  H   H2371     1.0  0.52072  0.58867  0.00454  1.0000
  Fe  Fe149     1.0  0.44034  0.54068  0.46944  1.0000
  H   H2372     1.0  0.48047  0.49961  0.05752  1.0000
  H   H2373     1.0  0.51639  0.68274  0.08142  1.0000
  H   H2374     1.0  0.52096  0.66721  0.29690  1.0000
  C   C1336     1.0  0.56805  0.72833  0.10299  1.0000
  H   H2375     1.0  0.55496  0.49609  0.15016  1.0000
  H   H2376     1.0  0.49822  0.58763  0.01454  1.0000
  H   H2377     1.0  0.57094  0.72692  0.12411  1.0000
  C   C1337     1.0  0.35194  0.49584  0.00452  1.0000
  H   H2378     1.0  0.48485  0.52727  0.15388  1.0000
  H   H2379     1.0  0.35170  0.49489  0.11032  1.0000
  N   N72       1.0  0.48906  0.63426  0.28250  1.0000
  C   C1338     1.0  0.48826  0.63434  0.31201  1.0000
  C   C1339     1.0  0.49491  0.65396  0.27220  1.0000
  C   C1340     1.0  0.46946  0.62291  0.27186  1.0000
  C   C1341     1.0  0.50189  0.62512  0.27290  1.0000
  H   H2380     1.0  0.40283  0.56102  0.99148  1.0000
  C   C1342     1.0  0.48224  0.61494  0.32511  1.0000
  C   C1343     1.0  0.46654  0.62276  0.24167  1.0000
  C   C1344     1.0  0.50886  0.67022  0.28943  1.0000
  C   C1345     1.0  0.51657  0.68838  0.27412  1.0000
  C   C1346     1.0  0.53344  0.62204  0.27393  1.0000
  S   S301      1.0  0.37599  0.50078  0.43738  1.0000
  C   C1347     1.0  0.44581  0.61297  0.23368  1.0000
  H   H2381     1.0  0.47842  0.64095  0.31823  1.0000
  H   H2382     1.0  0.50496  0.69225  0.26646  1.0000
  H   H2383     1.0  0.50092  0.65473  0.25239  1.0000
  H   H2384     1.0  0.48243  0.65776  0.26928  1.0000
  H   H2385     1.0  0.45919  0.62796  0.28087  1.0000
  H   H2386     1.0  0.46505  0.60790  0.27707  1.0000
  H   H2387     1.0  0.49616  0.60996  0.27742  1.0000
  H   H2388     1.0  0.50240  0.62558  0.25124  1.0000
  H   H2389     1.0  0.51918  0.53267  0.15724  1.0000
  C   C1348     1.0  0.60223  0.73417  0.09532  1.0000
  H   H2390     1.0  0.46772  0.60567  0.31902  1.0000
  C   C1349     1.0  0.55065  0.73745  0.05463  1.0000
  H   H2391     1.0  0.47423  0.61503  0.23214  1.0000
  H   H2392     1.0  0.47149  0.63706  0.23363  1.0000
  H   H2393     1.0  0.53988  0.51733  0.11681  1.0000
  H   H2394     1.0  0.47810  0.60275  0.36364  1.0000
  H   H2395     1.0  0.37483  0.51080  0.07742  1.0000
  H   H2396     1.0  0.52490  0.68679  0.25749  1.0000
  H   H2397     1.0  0.49988  0.54839  0.13885  1.0000
  N   N73       1.0  0.51835  0.49637  0.13881  1.0000
  H   H2398     1.0  0.53348  0.62128  0.25221  1.0000
  H   H2399     1.0  0.47134  0.50199  0.39512  1.0000
  C   C1350     1.0  0.52409  0.73561  0.15218  1.0000
  H   H2400     1.0  0.58015  0.72294  0.06639  1.0000
  N   N74       1.0  0.36943  0.49917  0.02103  1.0000
  H   H2401     1.0  0.44416  0.61271  0.21202  1.0000
  H   H2402     1.0  0.44021  0.59828  0.24045  1.0000
  H   H2403     1.0  0.43748  0.62053  0.24205  1.0000
  H   H2404     1.0  0.52656  0.53945  0.45528  1.0000
  C   C1351     1.0  0.50654  0.56813  0.47996  1.0000
  H   H2405     1.0  0.51014  0.50840  0.08800  1.0000
  C   C1352     1.0  0.54346  0.71787  0.06739  1.0000
  N   N75       1.0  0.50768  0.55634  0.03635  1.0000
  H   H2406     1.0  0.52956  0.64790  0.27424  1.0000
  C   C1353     1.0  0.49969  0.55993  0.01054  1.0000
  H   H2407     1.0  0.52403  0.50437  0.04673  1.0000
  C   C1354     1.0  0.52632  0.55459  0.03282  1.0000
  C   C1355     1.0  0.47823  0.50902  0.35458  1.0000
  H   H2408     1.0  0.48404  0.55438  0.01080  1.0000
  H   H2409     1.0  0.53929  0.51832  0.16212  1.0000
  H   H2410     1.0  0.61182  0.72943  0.08412  1.0000
  C   C1356     1.0  0.51740  0.56979  0.08353  1.0000
  H   H2411     1.0  0.50202  0.64312  0.32119  1.0000
  H   H2412     1.0  0.45986  0.50508  0.30608  1.0000
  H   H2413     1.0  0.52697  0.59974  0.09267  1.0000
  H   H2414     1.0  0.53181  0.57006  0.08197  1.0000
  C   C1357     1.0  0.47423  0.50333  0.03971  1.0000
  C   C1358     1.0  0.51859  0.58611  0.10150  1.0000
  H   H2415     1.0  0.52711  0.60765  0.28166  1.0000
  Fe  Fe150     1.0  0.60251  0.50239  0.00815  1.0000
  H   H2416     1.0  0.37387  0.53516  0.47646  1.0000
  H   H2417     1.0  0.54700  0.69748  0.12560  1.0000
  H   H2418     1.0  0.54135  0.57502  0.00378  1.0000
  C   C1359     1.0  0.51896  0.49996  0.08828  1.0000
  H   H2419     1.0  0.46134  0.50559  0.04489  1.0000
  C   C1360     1.0  0.58187  0.72197  0.08784  1.0000
  H   H2420     1.0  0.50329  0.51020  0.28196  1.0000
  H   H2421     1.0  0.51462  0.49549  0.35826  1.0000
  H   H2422     1.0  0.38880  0.55840  0.02001  1.0000
  H   H2423     1.0  0.50430  0.58561  0.10545  1.0000
  N   N76       1.0  0.48966  0.52259  0.30884  1.0000
  C   C1361     1.0  0.53652  0.72746  0.11036  1.0000
  C   C1362     1.0  0.49082  0.52562  0.33819  1.0000
  C   C1363     1.0  0.50230  0.54071  0.29684  1.0000
  H   H2424     1.0  0.39370  0.52164  0.03780  1.0000
  H   H2425     1.0  0.57319  0.58343  0.02272  1.0000
  C   C1364     1.0  0.49652  0.50736  0.30129  1.0000
  C   C1365     1.0  0.52304  0.54877  0.30694  1.0000
  C   C1366     1.0  0.54576  0.73590  0.02534  1.0000
  C   C1367     1.0  0.48078  0.51396  0.38385  1.0000
  C   C1368     1.0  0.53110  0.50295  0.16278  1.0000
  H   H2426     1.0  0.46479  0.52914  0.30769  1.0000
  C   C1369     1.0  0.53523  0.56440  0.28945  1.0000
  H   H2427     1.0  0.52275  0.50094  0.18073  1.0000
  C   C1370     1.0  0.50546  0.58064  0.00227  1.0000
  H   H2428     1.0  0.50536  0.52887  0.34586  1.0000
  H   H2429     1.0  0.48742  0.53803  0.34327  1.0000
  H   H2430     1.0  0.49663  0.55183  0.29982  1.0000
  H   H2431     1.0  0.50267  0.53891  0.27521  1.0000
  C   C1371     1.0  0.46984  0.51868  0.29915  1.0000
  C   C1372     1.0  0.53225  0.50630  0.06544  1.0000
  H   H2432     1.0  0.46317  0.50509  0.34924  1.0000
  H   H2433     1.0  0.50308  0.55211  0.99439  1.0000
  H   H2434     1.0  0.49272  0.49863  0.12403  1.0000
  H   H2435     1.0  0.37300  0.52633  0.03796  1.0000
  H   H2436     1.0  0.52899  0.53777  0.30745  1.0000
  H   H2437     1.0  0.52409  0.55490  0.32694  1.0000
  S   S302      1.0  0.58886  0.50303  0.46704  1.0000
  C   C1373     1.0  0.51084  0.52635  0.13912  1.0000
  H   H2438     1.0  0.48144  0.52334  0.00930  1.0000
  H   H2439     1.0  0.56588  0.51704  0.18974  1.0000
  C   C1374     1.0  0.46710  0.51911  0.26903  1.0000
  H   H2440     1.0  0.50061  0.51767  0.02201  1.0000
  C   C1375     1.0  0.49418  0.53794  0.04658  1.0000
  H   H2441     1.0  0.39617  0.52774  0.98924  1.0000
  C   C1376     1.0  0.53598  0.72571  0.14055  1.0000
  C   C1377     1.0  0.52257  0.63386  0.28276  1.0000
  S   S303      1.0  0.63455  0.51134  0.00379  1.0000
  H   H2442     1.0  0.53577  0.55875  0.26955  1.0000
  H   H2443     1.0  0.52959  0.57561  0.28786  1.0000
  H   H2444     1.0  0.54976  0.57060  0.29784  1.0000
  C   C1378     1.0  0.56168  0.57056  0.02919  1.0000
  H   H2445     1.0  0.50171  0.65740  0.11240  1.0000
  H   H2446     1.0  0.52590  0.69994  0.28715  1.0000
  H   H2447     1.0  0.47285  0.62349  0.36114  1.0000
  H   H2448     1.0  0.31950  0.49647  0.35417  1.0000
  C   C1379     1.0  0.50897  0.57136  0.05628  1.0000
  S   S304      1.0  0.42873  0.50556  0.40947  1.0000
  H   H2449     1.0  0.50939  0.72918  0.14447  1.0000
  C   C1380     1.0  0.48830  0.52085  0.02739  1.0000
  H   H2450     1.0  0.52403  0.73430  0.17380  1.0000
  H   H2451     1.0  0.50857  0.55675  0.09318  1.0000
  H   H2452     1.0  0.49189  0.60790  0.32016  1.0000
  C   C1381     1.0  0.51838  0.52490  0.45919  1.0000
  C   C1382     1.0  0.49448  0.53287  0.13750  1.0000
  H   H2453     1.0  0.51838  0.58090  0.47398  1.0000
  H   H2454     1.0  0.53056  0.54901  0.05081  1.0000
  H   H2455     1.0  0.50793  0.50754  0.31518  1.0000
  H   H2456     1.0  0.55032  0.73214  0.14939  1.0000
  H   H2457     1.0  0.54821  0.62855  0.28135  1.0000
  C   C1383     1.0  0.36132  0.49975  0.07050  1.0000
  C   C1384     1.0  0.38074  0.51981  0.02599  1.0000
  H   H2458     1.0  0.41028  0.55408  0.02185  1.0000
  C   C1385     1.0  0.52724  0.51382  0.47054  1.0000
  H   H2459     1.0  0.39803  0.56278  0.45805  1.0000
  H   H2460     1.0  0.54921  0.49910  0.20912  1.0000
  C   C1386     1.0  0.44641  0.51047  0.26055  1.0000
  C   C1387     1.0  0.33776  0.50347  0.01570  1.0000
  H   H2461     1.0  0.34453  0.51851  0.02129  1.0000
  S   S305      1.0  0.54852  0.52468  0.98755  1.0000
  C   C1388     1.0  0.55792  0.50174  0.19150  1.0000
  H   H2462     1.0  0.37453  0.53148  0.98922  1.0000
  H   H2463     1.0  0.39562  0.49552  0.01621  1.0000
  H   H2464     1.0  0.64209  0.54806  0.02949  1.0000
  H   H2465     1.0  0.33104  0.49526  0.03295  1.0000
  H   H2466     1.0  0.38423  0.49742  0.98629  1.0000
  H   H2467     1.0  0.53032  0.72958  0.02184  1.0000
  C   C1389     1.0  0.51646  0.49495  0.47501  1.0000
  H   H2468     1.0  0.33731  0.49618  0.44076  1.0000
  H   H2469     1.0  0.55236  0.72730  0.01519  1.0000
  C   C1390     1.0  0.39792  0.56085  0.47956  1.0000
  C   C1391     1.0  0.54559  0.49372  0.16700  1.0000
  H   H2470     1.0  0.32802  0.51024  0.48115  1.0000
  H   H2471     1.0  0.59958  0.49576  0.26671  1.0000
  H   H2472     1.0  0.48219  0.49680  0.35191  1.0000
  H   H2473     1.0  0.56807  0.49481  0.19408  1.0000
  H   H2474     1.0  0.52648  0.49896  0.39006  1.0000
  H   H2475     1.0  0.44027  0.49540  0.26547  1.0000
  C   C1392     1.0  0.48802  0.49881  0.45925  1.0000
  H   H2476     1.0  0.53724  0.49402  0.36157  1.0000
  H   H2477     1.0  0.53922  0.49437  0.11269  1.0000
  H   H2478     1.0  0.36813  0.49931  0.36697  1.0000
  H   H2479     1.0  0.52338  0.49315  0.24546  1.0000
  C   C1393     1.0  0.35439  0.50081  0.36771  1.0000
  H   H2480     1.0  0.35568  0.50157  0.98467  1.0000
  C   C1394     1.0  0.51331  0.49588  0.98173  1.0000
  Fe  Fe151     1.0  0.50022  0.56434  0.70309  1.0000
  S   S306      1.0  0.46962  0.54779  0.69723  1.0000
  S   S307      1.0  0.51822  0.54867  0.71754  1.0000
  Fe  Fe152     1.0  0.49619  0.60173  0.69072  1.0000
  S   S308      1.0  0.46478  0.58651  0.68425  1.0000
  S   S309      1.0  0.50489  0.63386  0.68832  1.0000
  Fe  Fe153     1.0  0.46589  0.57066  0.72070  1.0000
  S   S310      1.0  0.44419  0.56367  0.75271  1.0000
  Fe  Fe154     1.0  0.47153  0.56502  0.66124  1.0000
  S   S311      1.0  0.45603  0.54689  0.62554  1.0000
  S   S312      1.0  0.49657  0.58671  0.72843  1.0000
  S   S313      1.0  0.50286  0.58072  0.66580  1.0000
  C   C1395     1.0  0.54104  0.50918  0.68605  1.0000
  H   H2481     1.0  0.62332  0.50849  0.93567  1.0000
  H   H2482     1.0  0.45480  0.61913  0.70593  1.0000
  C   C1396     1.0  0.51397  0.57733  0.58578  1.0000
  H   H2483     1.0  0.45290  0.59775  0.83924  1.0000
  S   S314      1.0  0.63841  0.51332  0.50526  1.0000
  Fe  Fe155     1.0  0.40795  0.51408  0.93754  1.0000
  S   S315      1.0  0.42304  0.54550  0.93372  1.0000
  C   C1397     1.0  0.56005  0.53912  0.91456  1.0000
  Fe  Fe156     1.0  0.44561  0.50962  0.94663  1.0000
  S   S316      1.0  0.46204  0.54021  0.94345  1.0000
  C   C1398     1.0  0.56196  0.51654  0.59430  1.0000
  H   H2484     1.0  0.53088  0.52631  0.75169  1.0000
  S   S317      1.0  0.44868  0.56192  0.50364  1.0000
  Fe  Fe157     1.0  0.44327  0.53876  0.90841  1.0000
  S   S318      1.0  0.46082  0.55298  0.87335  1.0000
  H   H2485     1.0  0.35811  0.50606  0.49060  1.0000
  S   S319      1.0  0.42752  0.50755  0.91036  1.0000
  S   S320      1.0  0.57692  0.71131  0.68325  1.0000
  H   H2486     1.0  0.50608  0.58529  0.59435  1.0000
  H   H2487     1.0  0.50260  0.68067  0.76575  1.0000
  H   H2488     1.0  0.49423  0.57189  0.48347  1.0000
  N   N77       1.0  0.51501  0.49667  0.88987  1.0000
  H   H2489     1.0  0.46102  0.67537  0.76697  1.0000
  H   H2490     1.0  0.48434  0.57562  0.97104  1.0000
  C   C1399     1.0  0.47631  0.68364  0.76978  1.0000
  C   C1400     1.0  0.46974  0.50743  0.87854  1.0000
  H   H2491     1.0  0.55853  0.51247  0.57336  1.0000
  H   H2492     1.0  0.54647  0.67367  0.61055  1.0000
  H   H2493     1.0  0.56039  0.50357  0.64499  1.0000
  H   H2494     1.0  0.51783  0.71883  0.60039  1.0000
  C   C1401     1.0  0.46662  0.61587  0.80739  1.0000
  C   C1402     1.0  0.46998  0.50345  0.53202  1.0000
  C   C1403     1.0  0.52515  0.65516  0.68633  1.0000
  C   C1404     1.0  0.52294  0.67241  0.68864  1.0000
  C   C1405     1.0  0.53849  0.68967  0.68773  1.0000
  C   C1406     1.0  0.55657  0.68999  0.68431  1.0000
  C   C1407     1.0  0.55874  0.67274  0.68180  1.0000
  C   C1408     1.0  0.54319  0.65547  0.68278  1.0000
  H   H2495     1.0  0.50909  0.67241  0.69144  1.0000
  H   H2496     1.0  0.53654  0.70271  0.69016  1.0000
  H   H2497     1.0  0.57261  0.67274  0.67921  1.0000
  H   H2498     1.0  0.54522  0.64242  0.68097  1.0000
  C   C1409     1.0  0.45348  0.55175  0.59201  1.0000
  C   C1410     1.0  0.46085  0.56988  0.58215  1.0000
  C   C1411     1.0  0.45910  0.57278  0.55512  1.0000
  C   C1412     1.0  0.45017  0.55762  0.53760  1.0000
  C   C1413     1.0  0.44262  0.53955  0.54750  1.0000
  C   C1414     1.0  0.44419  0.53667  0.57454  1.0000
  H   H2499     1.0  0.46800  0.58165  0.59530  1.0000
  H   H2500     1.0  0.46489  0.58685  0.54770  1.0000
  H   H2501     1.0  0.43571  0.52782  0.53427  1.0000
  H   H2502     1.0  0.43844  0.52260  0.58196  1.0000
  C   C1415     1.0  0.44901  0.56086  0.78623  1.0000
  C   C1416     1.0  0.43408  0.55417  0.80355  1.0000
  C   C1417     1.0  0.43735  0.55158  0.83025  1.0000
  C   C1418     1.0  0.45562  0.55564  0.83991  1.0000
  C   C1419     1.0  0.47054  0.56242  0.82260  1.0000
  C   C1420     1.0  0.46729  0.56512  0.79597  1.0000
  H   H2503     1.0  0.41990  0.55101  0.79627  1.0000
  H   H2504     1.0  0.42579  0.54666  0.84343  1.0000
  H   H2505     1.0  0.48475  0.56582  0.82993  1.0000
  H   H2506     1.0  0.47893  0.57042  0.78297  1.0000
  C   C1421     1.0  0.50797  0.52460  0.72548  1.0000
  C   C1422     1.0  0.49093  0.51253  0.71395  1.0000
  C   C1423     1.0  0.40637  0.50207  0.83699  1.0000
  H   H2507     1.0  0.47294  0.61831  0.84941  1.0000
  H   H2508     1.0  0.64551  0.55215  0.52257  1.0000
  C   C1424     1.0  0.51773  0.51712  0.74258  1.0000
  H   H2509     1.0  0.48335  0.51796  0.70049  1.0000
  C   C1425     1.0  0.53344  0.67247  0.59962  1.0000
  H   H2510     1.0  0.47829  0.61454  0.74946  1.0000
  H   H2511     1.0  0.48445  0.50647  0.80192  1.0000
  H   H2512     1.0  0.48902  0.55233  0.58274  1.0000
  C   C1426     1.0  0.51143  0.52307  0.53040  1.0000
  H   H2513     1.0  0.40452  0.51424  0.82778  1.0000
  H   H2514     1.0  0.55038  0.50959  0.92017  1.0000
  H   H2515     1.0  0.47771  0.49399  0.53026  1.0000
  H   H2516     1.0  0.63346  0.55767  0.58479  1.0000
  H   H2517     1.0  0.49119  0.50671  0.85315  1.0000
  H   H2518     1.0  0.49900  0.52426  0.87908  1.0000
  C   C1427     1.0  0.34567  0.52045  0.51641  1.0000
  C   C1428     1.0  0.52039  0.73595  0.64882  1.0000
  H   H2519     1.0  0.55532  0.51665  0.88683  1.0000
  H   H2520     1.0  0.48375  0.54788  0.51816  1.0000
  H   H2521     1.0  0.51059  0.50328  0.63389  1.0000
  C   C1429     1.0  0.39554  0.52264  0.56857  1.0000
  H   H2522     1.0  0.47205  0.52880  0.55211  1.0000
  S   S321      1.0  0.42467  0.51304  0.97415  1.0000
  C   C1430     1.0  0.48130  0.52099  0.54925  1.0000
  H   H2523     1.0  0.48474  0.63582  0.73255  1.0000
  H   H2524     1.0  0.50443  0.50436  0.56469  1.0000
  C   C1431     1.0  0.49555  0.54326  0.51471  1.0000
  C   C1432     1.0  0.51893  0.63429  0.76126  1.0000
  H   H2525     1.0  0.58493  0.69702  0.63077  1.0000
  H   H2526     1.0  0.45626  0.64049  0.74367  1.0000
  H   H2527     1.0  0.47623  0.59890  0.83351  1.0000
  C   C1433     1.0  0.38790  0.53680  0.51538  1.0000
  C   C1434     1.0  0.55098  0.73007  0.56166  1.0000
  H   H2528     1.0  0.53386  0.53981  0.66511  1.0000
  H   H2529     1.0  0.49073  0.52834  0.95163  1.0000
  C   C1435     1.0  0.61464  0.49859  0.92004  1.0000
  H   H2530     1.0  0.52430  0.55663  0.50013  1.0000
  H   H2531     1.0  0.49124  0.61471  0.79171  1.0000
  H   H2532     1.0  0.55070  0.50693  0.73867  1.0000
  N   N78       1.0  0.44441  0.49816  0.79019  1.0000
  H   H2533     1.0  0.54380  0.72237  0.52047  1.0000
  H   H2534     1.0  0.53595  0.50409  0.52950  1.0000
  C   C1436     1.0  0.35788  0.50876  0.51204  1.0000
  C   C1437     1.0  0.51852  0.65341  0.60619  1.0000
  H   H2535     1.0  0.52625  0.68718  0.62970  1.0000
  H   H2536     1.0  0.51638  0.70720  0.64608  1.0000
  H   H2537     1.0  0.50508  0.65105  0.59548  1.0000
  H   H2538     1.0  0.52331  0.64211  0.60041  1.0000
  H   H2539     1.0  0.51609  0.65247  0.62757  1.0000
  H   H2540     1.0  0.50453  0.59698  0.96835  1.0000
  H   H2541     1.0  0.55415  0.54215  0.93285  1.0000
  C   C1438     1.0  0.52747  0.72074  0.64086  1.0000
  H   H2542     1.0  0.42733  0.51381  0.75084  1.0000
  C   C1439     1.0  0.61085  0.51015  0.89746  1.0000
  Fe  Fe158     1.0  0.56777  0.50684  0.49390  1.0000
  C   C1440     1.0  0.53135  0.72139  0.61118  1.0000
  H   H2543     1.0  0.52917  0.50597  0.69939  1.0000
  H   H2544     1.0  0.49218  0.49802  0.91209  1.0000
  H   H2545     1.0  0.54058  0.73619  0.60739  1.0000
  H   H2546     1.0  0.58033  0.71954  0.58362  1.0000
  H   H2547     1.0  0.54039  0.65495  0.73828  1.0000
  C   C1441     1.0  0.62969  0.49834  0.66364  1.0000
  C   C1442     1.0  0.51649  0.51190  0.55237  1.0000
  H   H2548     1.0  0.61414  0.50233  0.63053  1.0000
  C   C1443     1.0  0.48296  0.65502  0.78323  1.0000
  H   H2549     1.0  0.61295  0.53402  0.92236  1.0000
  H   H2550     1.0  0.55792  0.52531  0.64352  1.0000
  C   C1444     1.0  0.55006  0.50998  0.64041  1.0000
  H   H2551     1.0  0.53564  0.67245  0.57829  1.0000
  H   H2552     1.0  0.45853  0.60427  0.79348  1.0000
  C   C1445     1.0  0.51895  0.51049  0.65166  1.0000
  C   C1446     1.0  0.48565  0.50035  0.96407  1.0000
  C   C1447     1.0  0.51085  0.49777  0.74752  1.0000
  H   H2553     1.0  0.62339  0.53022  0.61356  1.0000
  C   C1448     1.0  0.56229  0.50940  0.72497  1.0000
  H   H2554     1.0  0.55793  0.70666  0.63353  1.0000
  C   C1449     1.0  0.47790  0.62881  0.75059  1.0000
  C   C1450     1.0  0.48995  0.50949  0.87421  1.0000
  H   H2555     1.0  0.52084  0.57262  0.60199  1.0000
  C   C1451     1.0  0.49676  0.51926  0.96038  1.0000
  H   H2556     1.0  0.60747  0.51614  0.58790  1.0000
  H   H2557     1.0  0.58936  0.51682  0.91711  1.0000
  N   N79       1.0  0.53379  0.50287  0.65851  1.0000
  H   H2558     1.0  0.46624  0.51734  0.86601  1.0000
  N   N80       1.0  0.54013  0.70820  0.60119  1.0000
  H   H2559     1.0  0.52499  0.53263  0.52253  1.0000
  H   H2560     1.0  0.54044  0.72284  0.65255  1.0000
  H   H2561     1.0  0.52267  0.51944  0.91829  1.0000
  H   H2562     1.0  0.50118  0.53060  0.62457  1.0000
  H   H2563     1.0  0.57034  0.52471  0.72348  1.0000
  H   H2564     1.0  0.31892  0.49684  0.51010  1.0000
  H   H2565     1.0  0.60101  0.70608  0.60465  1.0000
  H   H2566     1.0  0.57428  0.51325  0.60018  1.0000
  H   H2567     1.0  0.50631  0.57492  0.96047  1.0000
  Fe  Fe159     1.0  0.44046  0.54381  0.96901  1.0000
  C   C1452     1.0  0.62120  0.52766  0.59212  1.0000
  H   H2568     1.0  0.50445  0.51340  0.51376  1.0000
  H   H2569     1.0  0.51309  0.54081  0.57702  1.0000
  H   H2570     1.0  0.53331  0.50960  0.60457  1.0000
  H   H2571     1.0  0.43641  0.51403  0.83899  1.0000
  H   H2572     1.0  0.48036  0.69560  0.75622  1.0000
  H   H2573     1.0  0.45887  0.62517  0.80999  1.0000
  H   H2574     1.0  0.51915  0.62510  0.77767  1.0000
  H   H2575     1.0  0.46777  0.64982  0.78705  1.0000
  H   H2576     1.0  0.44754  0.50206  0.70737  1.0000
  N   N81       1.0  0.37755  0.51689  0.52377  1.0000
  H   H2577     1.0  0.44659  0.59943  0.72774  1.0000
  C   C1453     1.0  0.57418  0.70875  0.59858  1.0000
  H   H2578     1.0  0.51291  0.68543  0.60009  1.0000
  H   H2579     1.0  0.56829  0.69505  0.58821  1.0000
  H   H2580     1.0  0.60047  0.50089  0.88295  1.0000
  H   H2581     1.0  0.49000  0.66114  0.80236  1.0000
  H   H2582     1.0  0.56675  0.72328  0.53113  1.0000
  H   H2583     1.0  0.50966  0.53514  0.78878  1.0000
  H   H2584     1.0  0.51154  0.62551  0.74409  1.0000
  H   H2585     1.0  0.40477  0.53728  0.56430  1.0000
  H   H2586     1.0  0.44897  0.62095  0.76499  1.0000
  H   H2587     1.0  0.52629  0.70451  0.56304  1.0000
  H   H2588     1.0  0.54843  0.52467  0.68719  1.0000
  C   C1454     1.0  0.52738  0.68855  0.60812  1.0000
  H   H2589     1.0  0.54552  0.63493  0.74735  1.0000
  H   H2590     1.0  0.36702  0.50283  0.55999  1.0000
  H   H2591     1.0  0.50701  0.73391  0.63817  1.0000
  S   S322      1.0  0.58627  0.51050  0.53048  1.0000
  C   C1455     1.0  0.48746  0.67150  0.76392  1.0000
  Fe  Fe160     1.0  0.60604  0.50366  0.50386  1.0000
  C   C1456     1.0  0.55931  0.71335  0.61413  1.0000
  H   H2592     1.0  0.49600  0.63394  0.81400  1.0000
  C   C1457     1.0  0.45710  0.62672  0.74743  1.0000
  H   H2593     1.0  0.54771  0.65287  0.77153  1.0000
  H   H2594     1.0  0.43269  0.61318  0.72178  1.0000
  C   C1458     1.0  0.54080  0.70986  0.57179  1.0000
  C   C1459     1.0  0.44726  0.61383  0.72426  1.0000
  C   C1460     1.0  0.46727  0.60720  0.83398  1.0000
  C   C1461     1.0  0.50047  0.56061  0.56981  1.0000
  H   H2595     1.0  0.56385  0.73799  0.57355  1.0000
  H   H2596     1.0  0.52436  0.54110  0.96472  1.0000
  C   C1462     1.0  0.52333  0.49730  0.54132  1.0000
  H   H2597     1.0  0.51792  0.73531  0.67016  1.0000
  C   C1463     1.0  0.46118  0.51576  0.79702  1.0000
  C   C1464     1.0  0.48050  0.51604  0.78927  1.0000
  S   S323      1.0  0.58510  0.50237  0.97198  1.0000
  H   H2598     1.0  0.43303  0.51555  0.70433  1.0000
  H   H2599     1.0  0.49431  0.56617  0.55377  1.0000
  C   C1465     1.0  0.52598  0.53190  0.64752  1.0000
  C   C1466     1.0  0.49581  0.53557  0.79315  1.0000
  N   N82       1.0  0.48875  0.63930  0.77467  1.0000
  H   H2600     1.0  0.54156  0.73791  0.56279  1.0000
  H   H2601     1.0  0.49040  0.53305  0.49805  1.0000
  H   H2602     1.0  0.60069  0.53244  0.89137  1.0000
  H   H2603     1.0  0.38226  0.54644  0.52503  1.0000
  C   C1467     1.0  0.32646  0.51116  0.50261  1.0000
  H   H2604     1.0  0.51491  0.55317  0.63919  1.0000
  H   H2605     1.0  0.42665  0.51415  0.79289  1.0000
  H   H2606     1.0  0.45931  0.52806  0.78831  1.0000
  H   H2607     1.0  0.46231  0.51862  0.81845  1.0000
  H   H2608     1.0  0.48048  0.51191  0.76852  1.0000
  H   H2609     1.0  0.31786  0.51960  0.50624  1.0000
  C   C1468     1.0  0.54881  0.51905  0.90488  1.0000
  H   H2610     1.0  0.45222  0.52338  0.74572  1.0000
  H   H2611     1.0  0.36998  0.52664  0.55985  1.0000
  C   C1469     1.0  0.54513  0.50575  0.61087  1.0000
  C   C1470     1.0  0.43541  0.50440  0.71562  1.0000
  C   C1471     1.0  0.51043  0.54798  0.55952  1.0000
  H   H2612     1.0  0.56578  0.72863  0.61866  1.0000
  H   H2613     1.0  0.35231  0.53475  0.50861  1.0000
  H   H2614     1.0  0.53523  0.53614  0.63051  1.0000
  N   N83       1.0  0.49971  0.53386  0.53853  1.0000
  H   H2615     1.0  0.49325  0.54556  0.77958  1.0000
  H   H2616     1.0  0.49632  0.54065  0.81367  1.0000
  C   C1472     1.0  0.50940  0.64799  0.76870  1.0000
  H   H2617     1.0  0.54737  0.70081  0.56297  1.0000
  C   C1473     1.0  0.39278  0.52162  0.59810  1.0000
  H   H2618     1.0  0.51686  0.57197  0.51952  1.0000
  H   H2619     1.0  0.52794  0.52176  0.56506  1.0000
  C   C1474     1.0  0.38799  0.50515  0.51438  1.0000
  H   H2620     1.0  0.47929  0.68928  0.79019  1.0000
  C   C1475     1.0  0.50950  0.53787  0.64228  1.0000
  C   C1476     1.0  0.60300  0.52420  0.90781  1.0000
  H   H2621     1.0  0.48324  0.51633  0.56924  1.0000
  C   C1477     1.0  0.52436  0.51482  0.97836  1.0000
  H   H2622     1.0  0.40667  0.52604  0.60849  1.0000
  C   C1478     1.0  0.53937  0.64497  0.75420  1.0000
  H   H2623     1.0  0.48439  0.66638  0.74330  1.0000
  H   H2624     1.0  0.38724  0.50412  0.49265  1.0000
  C   C1479     1.0  0.59022  0.70848  0.61648  1.0000
  H   H2625     1.0  0.40291  0.54191  0.52205  1.0000
  C   C1480     1.0  0.62026  0.54541  0.58033  1.0000
  H   H2626     1.0  0.52787  0.52686  0.88567  1.0000
  H   H2627     1.0  0.51756  0.65681  0.78563  1.0000
  C   C1481     1.0  0.52788  0.51595  0.89969  1.0000
  C   C1482     1.0  0.48665  0.62621  0.79721  1.0000
  H   H2628     1.0  0.61798  0.54374  0.55875  1.0000
  H   H2629     1.0  0.59697  0.72200  0.62733  1.0000
  H   H2630     1.0  0.50020  0.53478  0.65933  1.0000
  H   H2631     1.0  0.51169  0.65751  0.75179  1.0000
  H   H2632     1.0  0.46717  0.50751  0.51208  1.0000
  H   H2633     1.0  0.32787  0.51010  0.97825  1.0000
  H   H2634     1.0  0.56565  0.53186  0.59644  1.0000
  H   H2635     1.0  0.33693  0.49999  0.93533  1.0000
  H   H2636     1.0  0.55988  0.54930  0.89946  1.0000
  H   H2637     1.0  0.50859  0.50741  0.66746  1.0000
  S   S324      1.0  0.37575  0.50519  0.93438  1.0000
  H   H2638     1.0  0.57482  0.54100  0.91890  1.0000
  H   H2639     1.0  0.52465  0.55687  0.55280  1.0000
  H   H2640     1.0  0.52490  0.58683  0.57309  1.0000
  C   C1483     1.0  0.51594  0.52646  0.96767  1.0000
  C   C1484     1.0  0.51219  0.56040  0.50472  1.0000
  H   H2641     1.0  0.52042  0.50647  0.85026  1.0000
  C   C1485     1.0  0.48402  0.49318  0.71897  1.0000
  H   H2642     1.0  0.34332  0.52164  0.53755  1.0000
  C   C1486     1.0  0.55639  0.72996  0.53313  1.0000
  C   C1487     1.0  0.43931  0.51043  0.74445  1.0000
  H   H2643     1.0  0.40320  0.51204  0.51956  1.0000
  C   C1488     1.0  0.42717  0.50075  0.79991  1.0000
  H   H2644     1.0  0.40564  0.50352  0.85853  1.0000
  H   H2645     1.0  0.62379  0.51823  0.88705  1.0000
  H   H2646     1.0  0.46805  0.51078  0.89928  1.0000
  C   C1489     1.0  0.49982  0.58203  0.97376  1.0000
  H   H2647     1.0  0.60839  0.54819  0.58867  1.0000
  C   C1490     1.0  0.62445  0.49588  0.63441  1.0000
  N   N84       1.0  0.63910  0.50519  0.58840  1.0000
  C   C1491     1.0  0.37648  0.51682  0.55320  1.0000
  C   C1492     1.0  0.63762  0.52343  0.58081  1.0000
  H   H2648     1.0  0.63657  0.52405  0.55911  1.0000
  C   C1493     1.0  0.55461  0.50066  0.69807  1.0000
  H   H2649     1.0  0.38416  0.50707  0.60376  1.0000
  H   H2650     1.0  0.57176  0.50286  0.73313  1.0000
  H   H2651     1.0  0.38588  0.53115  0.60442  1.0000
  H   H2652     1.0  0.40298  0.51336  0.56361  1.0000
  H   H2653     1.0  0.56686  0.50298  0.68576  1.0000
  C   C1494     1.0  0.49513  0.49567  0.89146  1.0000
  C   C1495     1.0  0.42529  0.50138  0.83013  1.0000
  H   H2654     1.0  0.63706  0.49765  0.87700  1.0000
  C   C1496     1.0  0.64215  0.50449  0.61767  1.0000
  H   H2655     1.0  0.44229  0.50049  0.54501  1.0000
  H   H2656     1.0  0.63592  0.51344  0.66930  1.0000
  H   H2657     1.0  0.35907  0.49491  0.84254  1.0000
  C   C1497     1.0  0.52018  0.49438  0.86214  1.0000
  C   C1498     1.0  0.64072  0.49412  0.89693  1.0000
  H   H2658     1.0  0.53476  0.49490  0.86158  1.0000
  H   H2659     1.0  0.45976  0.49296  0.87363  1.0000
  C   C1499     1.0  0.44178  0.49471  0.76095  1.0000
  C   C1500     1.0  0.38818  0.54005  0.48549  1.0000
  H   H2660     1.0  0.41268  0.56634  0.48717  1.0000
  H   H2661     1.0  0.39040  0.56904  0.48847  1.0000
  H   H2662     1.0  0.33560  0.49329  0.87625  1.0000
  H   H2663     1.0  0.34997  0.49476  0.52026  1.0000
  S   S325      1.0  0.55115  0.52444  0.48128  1.0000
  C   C1501     1.0  0.47637  0.95923  0.39965  1.0000
  S   S326      1.0  0.45888  0.92824  0.46228  1.0000
  C   C1502     1.0  0.48539  0.86426  0.08429  1.0000
  H   H2664     1.0  0.48670  0.88238  0.14774  1.0000
  S   S327      1.0  0.44669  0.88334  0.45781  1.0000
  C   C1503     1.0  0.62048  0.79649  0.33396  1.0000
  Fe  Fe161     1.0  0.45411  0.90713  0.42961  1.0000
  S   S328      1.0  0.43662  0.90991  0.39434  1.0000
  H   H2665     1.0  0.49647  0.95719  0.07748  1.0000
  S   S329      1.0  0.44387  0.91509  0.02226  1.0000
  S   S330      1.0  0.48436  0.91104  0.42801  1.0000
  H   H2666     1.0  0.52872  0.97885  0.36619  1.0000
  Fe  Fe162     1.0  0.44480  0.91823  0.23919  1.0000
  S   S331      1.0  0.42919  0.93733  0.24168  1.0000
  S   S332      1.0  0.45607  0.90722  0.27426  1.0000
  Fe  Fe163     1.0  0.44576  0.92027  0.17879  1.0000
  S   S333      1.0  0.42995  0.93945  0.17772  1.0000
  S   S334      1.0  0.46064  0.91317  0.14464  1.0000
  Fe  Fe164     1.0  0.44910  0.95455  0.21180  1.0000
  H   H2667     1.0  0.61238  0.86128  0.03698  1.0000
  Fe  Fe165     1.0  0.41133  0.92009  0.20765  1.0000
  S   S335      1.0  0.37944  0.91242  0.21019  1.0000
  S   S336      1.0  0.46577  0.93648  0.21130  1.0000
  S   S337      1.0  0.42614  0.89998  0.20671  1.0000
  Fe  Fe166     1.0  0.61248  0.83294  0.42576  1.0000
  S   S338      1.0  0.60037  0.80162  0.42523  1.0000
  C   C1504     1.0  0.38316  0.93169  0.28265  1.0000
  Fe  Fe167     1.0  0.57500  0.83544  0.43862  1.0000
  S   S339      1.0  0.56003  0.80403  0.43939  1.0000
  S   S340      1.0  0.56575  0.85970  0.44562  1.0000
  Fe  Fe168     1.0  0.58572  0.80431  0.46189  1.0000
  H   H2668     1.0  0.39494  0.94534  0.28654  1.0000
  Fe  Fe169     1.0  0.57611  0.80413  0.40265  1.0000
  S   S341      1.0  0.56353  0.78579  0.36620  1.0000
  S   S342      1.0  0.59952  0.83567  0.46350  1.0000
  S   S343      1.0  0.58928  0.83536  0.40083  1.0000
  H   H2669     1.0  0.58741  0.83485  0.14931  1.0000
  S   S344      1.0  0.56455  0.76382  0.18722  1.0000
  Fe  Fe170     1.0  0.61772  0.78553  0.17096  1.0000
  S   S345      1.0  0.60028  0.80265  0.17557  1.0000
  H   H2670     1.0  0.34929  0.83264  0.05829  1.0000
  Fe  Fe171     1.0  0.58863  0.78500  0.21099  1.0000
  S   S346      1.0  0.58849  0.80277  0.24742  1.0000
  Fe  Fe172     1.0  0.57830  0.77997  0.15156  1.0000
  S   S347      1.0  0.56245  0.78577  0.11658  1.0000
  S   S348      1.0  0.60740  0.76873  0.20735  1.0000
  S   S349      1.0  0.59631  0.76371  0.14528  1.0000
  H   H2671     1.0  0.37119  0.93103  0.29479  1.0000
  C   C1505     1.0  0.58133  0.78974  0.03102  1.0000
  C   C1506     1.0  0.59108  0.78430  0.05083  1.0000
  C   C1507     1.0  0.58560  0.78318  0.07708  1.0000
  C   C1508     1.0  0.57001  0.78714  0.08380  1.0000
  C   C1509     1.0  0.56003  0.79223  0.06392  1.0000
  C   C1510     1.0  0.56567  0.79357  0.03768  1.0000
  H   H2672     1.0  0.60306  0.78104  0.04586  1.0000
  H   H2673     1.0  0.59343  0.77924  0.09207  1.0000
  H   H2674     1.0  0.54790  0.79523  0.06885  1.0000
  H   H2675     1.0  0.55788  0.79755  0.02262  1.0000
  C   C1511     1.0  0.57128  0.79076  0.33354  1.0000
  C   C1512     1.0  0.58023  0.80912  0.32497  1.0000
  C   C1513     1.0  0.58529  0.81247  0.29857  1.0000
  C   C1514     1.0  0.58176  0.79755  0.28046  1.0000
  C   C1515     1.0  0.57294  0.77921  0.28909  1.0000
  C   C1516     1.0  0.56756  0.77587  0.31538  1.0000
  H   H2676     1.0  0.58295  0.82073  0.33856  1.0000
  H   H2677     1.0  0.59194  0.82673  0.29208  1.0000
  H   H2678     1.0  0.57005  0.76759  0.27545  1.0000
  H   H2679     1.0  0.50137  0.87099  0.13514  1.0000
  C   C1517     1.0  0.35850  0.89239  0.20250  1.0000
  C   C1518     1.0  0.35877  0.87537  0.19334  1.0000
  C   C1519     1.0  0.34177  0.85985  0.18822  1.0000
  H   H2680     1.0  0.57953  0.85248  0.02542  1.0000
  C   C1520     1.0  0.64048  0.80057  0.47539  1.0000
  C   C1521     1.0  0.34094  0.89358  0.20634  1.0000
  H   H2681     1.0  0.37208  0.87413  0.19031  1.0000
  H   H2682     1.0  0.34223  0.84676  0.18132  1.0000
  H   H2683     1.0  0.48491  0.96323  0.27430  1.0000
  H   H2684     1.0  0.34049  0.90664  0.21341  1.0000
  H   H2685     1.0  0.49481  0.97446  0.22026  1.0000
  C   C1522     1.0  0.54302  0.86003  0.44756  1.0000
  C   C1523     1.0  0.52693  0.84359  0.44784  1.0000
  H   H2686     1.0  0.32224  0.84194  0.27277  1.0000
  C   C1524     1.0  0.50729  0.86202  0.45120  1.0000
  C   C1525     1.0  0.52341  0.87844  0.45080  1.0000
  C   C1526     1.0  0.54118  0.87742  0.44902  1.0000
  H   H2687     1.0  0.52820  0.83015  0.44690  1.0000
  H   H2688     1.0  0.59930  0.85767  0.06651  1.0000
  H   H2689     1.0  0.52217  0.89191  0.45197  1.0000
  H   H2690     1.0  0.55358  0.89021  0.44883  1.0000
  C   C1527     1.0  0.44889  0.91531  0.05630  1.0000
  C   C1528     1.0  0.43461  0.91304  0.07410  1.0000
  C   C1529     1.0  0.43813  0.91305  0.10130  1.0000
  C   C1530     1.0  0.45589  0.91489  0.11089  1.0000
  C   C1531     1.0  0.47022  0.91741  0.09309  1.0000
  C   C1532     1.0  0.46680  0.91789  0.06597  1.0000
  H   H2691     1.0  0.42070  0.91113  0.06682  1.0000
  H   H2692     1.0  0.42696  0.91106  0.11478  1.0000
  H   H2693     1.0  0.48407  0.91914  0.10037  1.0000
  H   H2694     1.0  0.47798  0.92021  0.05247  1.0000
  C   C1533     1.0  0.44271  0.90961  0.36119  1.0000
  C   C1534     1.0  0.45588  0.90235  0.35344  1.0000
  C   C1535     1.0  0.45994  0.90191  0.32677  1.0000
  C   C1536     1.0  0.45105  0.90889  0.30762  1.0000
  C   C1537     1.0  0.43833  0.91669  0.31546  1.0000
  C   C1538     1.0  0.43406  0.91689  0.34209  1.0000
  H   H2695     1.0  0.46260  0.89667  0.36793  1.0000
  H   H2696     1.0  0.46983  0.89588  0.32089  1.0000
  H   H2697     1.0  0.43163  0.92235  0.30096  1.0000
  H   H2698     1.0  0.42399  0.92269  0.34797  1.0000
  H   H2699     1.0  0.47007  0.94365  0.36317  1.0000
  H   H2700     1.0  0.63921  0.83122  0.16447  1.0000
  H   H2701     1.0  0.64300  0.83040  0.10018  1.0000
  H   H2702     1.0  0.36957  0.89636  0.26237  1.0000
  N   N85       1.0  0.52882  0.83167  0.36043  1.0000
  C   C1539     1.0  0.51727  0.84330  0.35501  1.0000
  C   C1540     1.0  0.53062  0.82203  0.33537  1.0000
  C   C1541     1.0  0.51796  0.81656  0.37912  1.0000
  C   C1542     1.0  0.54796  0.84298  0.37258  1.0000
  C   C1543     1.0  0.55730  0.86385  0.36459  1.0000
  C   C1544     1.0  0.51146  0.85146  0.37970  1.0000
  C   C1545     1.0  0.52594  0.80130  0.38478  1.0000
  C   C1546     1.0  0.54125  0.83476  0.31306  1.0000
  C   C1547     1.0  0.54050  0.82318  0.28831  1.0000
  C   C1548     1.0  0.57815  0.87223  0.37233  1.0000
  C   C1549     1.0  0.50519  0.86745  0.37300  1.0000
  H   H2703     1.0  0.50405  0.83474  0.34400  1.0000
  H   H2704     1.0  0.52452  0.85502  0.34188  1.0000
  H   H2705     1.0  0.53848  0.81281  0.33909  1.0000
  H   H2706     1.0  0.51644  0.81271  0.32761  1.0000
  H   H2707     1.0  0.50318  0.80921  0.37177  1.0000
  H   H2708     1.0  0.51710  0.82289  0.39844  1.0000
  H   H2709     1.0  0.54745  0.84324  0.39434  1.0000
  H   H2710     1.0  0.55783  0.83598  0.36835  1.0000
  H   H2711     1.0  0.55057  0.87236  0.37458  1.0000
  H   H2712     1.0  0.55610  0.86572  0.34332  1.0000
  H   H2713     1.0  0.49951  0.84037  0.38900  1.0000
  H   H2714     1.0  0.52312  0.85676  0.39449  1.0000
  H   H2715     1.0  0.54115  0.80773  0.38984  1.0000
  H   H2716     1.0  0.52381  0.79183  0.36749  1.0000
  H   H2717     1.0  0.53521  0.84523  0.30788  1.0000
  H   H2718     1.0  0.55630  0.84201  0.31885  1.0000
  H   H2719     1.0  0.54882  0.83247  0.27287  1.0000
  H   H2720     1.0  0.54653  0.81246  0.29231  1.0000
  H   H2721     1.0  0.52581  0.81606  0.28079  1.0000
  H   H2722     1.0  0.58022  0.87136  0.39376  1.0000
  H   H2723     1.0  0.58577  0.86475  0.36193  1.0000
  H   H2724     1.0  0.58423  0.88722  0.36698  1.0000
  H   H2725     1.0  0.49322  0.86262  0.35859  1.0000
  H   H2726     1.0  0.50058  0.87237  0.39107  1.0000
  H   H2727     1.0  0.51697  0.87941  0.36496  1.0000
  C   C1550     1.0  0.39519  0.86769  0.35766  1.0000
  H   H2728     1.0  0.45978  0.95399  0.05782  1.0000
  H   H2729     1.0  0.61974  0.82974  0.33735  1.0000
  H   H2730     1.0  0.50063  0.78202  0.40271  1.0000
  H   H2731     1.0  0.40119  0.89019  0.31778  1.0000
  H   H2732     1.0  0.43582  0.95243  0.08802  1.0000
  C   C1551     1.0  0.45790  0.96202  0.40246  1.0000
  H   H2733     1.0  0.54426  0.74665  0.06360  1.0000
  H   H2734     1.0  0.43643  0.97519  0.07972  1.0000
  C   C1552     1.0  0.48660  0.85545  0.03840  1.0000
  C   C1553     1.0  0.48893  0.97843  0.46359  1.0000
  H   H2735     1.0  0.48785  0.86031  0.01788  1.0000
  H   H2736     1.0  0.52166  0.77800  0.41058  1.0000
  H   H2737     1.0  0.44188  0.97185  0.29696  1.0000
  C   C1554     1.0  0.38950  0.91573  0.28926  1.0000
  C   C1555     1.0  0.50709  0.97944  0.46898  1.0000
  H   H2738     1.0  0.60532  0.74907  0.09072  1.0000
  C   C1556     1.0  0.47346  0.96894  0.10545  1.0000
  H   H2739     1.0  0.63478  0.79157  0.07821  1.0000
  H   H2740     1.0  0.44623  0.95067  0.39193  1.0000
  H   H2741     1.0  0.61242  0.84605  0.15479  1.0000
  C   C1557     1.0  0.48712  0.96711  0.15067  1.0000
  Fe  Fe173     1.0  0.46526  0.91810  0.99080  1.0000
  C   C1558     1.0  0.43572  0.86613  0.02192  1.0000
  H   H2742     1.0  0.49410  0.89149  0.02918  1.0000
  H   H2743     1.0  0.62257  0.77110  0.31806  1.0000
  C   C1559     1.0  0.51748  0.97214  0.05051  1.0000
  H   H2744     1.0  0.49185  0.92966  0.37524  1.0000
  H   H2745     1.0  0.61445  0.83076  0.03910  1.0000
  C   C1560     1.0  0.46271  0.86778  0.05253  1.0000
  H   H2746     1.0  0.64105  0.86250  0.31870  1.0000
  H   H2747     1.0  0.31867  0.81566  0.07815  1.0000
  H   H2748     1.0  0.40960  0.94969  0.05807  1.0000
  H   H2749     1.0  0.49582  0.89246  0.10308  1.0000
  C   C1561     1.0  0.58405  0.84148  0.03329  1.0000
  C   C1562     1.0  0.48465  0.87843  0.10559  1.0000
  C   C1563     1.0  0.62436  0.86386  0.35099  1.0000
  H   H2750     1.0  0.42539  0.94132  0.04170  1.0000
  C   C1564     1.0  0.32394  0.87809  0.20109  1.0000
  C   C1565     1.0  0.52874  0.91335  0.04847  1.0000
  H   H2751     1.0  0.49671  0.83184  0.44996  1.0000
  C   C1566     1.0  0.35018  0.85866  0.25911  1.0000
  S   S350      1.0  0.51273  0.95943  0.46501  1.0000
  H   H2752     1.0  0.47624  0.85823  0.13702  1.0000
  H   H2753     1.0  0.35697  0.84239  0.09092  1.0000
  H   H2754     1.0  0.44340  0.98762  0.27060  1.0000
  C   C1567     1.0  0.51590  0.78899  0.40736  1.0000
  H   H2755     1.0  0.49281  0.94496  0.28317  1.0000
  H   H2756     1.0  0.40581  0.89122  0.27319  1.0000
  C   C1568     1.0  0.60064  0.84454  0.14082  1.0000
  H   H2757     1.0  0.40335  0.86045  0.23037  1.0000
  H   H2758     1.0  0.45439  0.96168  0.42343  1.0000
  N   N86       1.0  0.48261  0.86903  0.05634  1.0000
  H   H2759     1.0  0.63047  0.81297  0.04462  1.0000
  C   C1569     1.0  0.50347  0.94345  0.37954  1.0000
  H   H2760     1.0  0.49087  0.97591  0.31988  1.0000
  H   H2761     1.0  0.63323  0.85259  0.11697  1.0000
  H   H2762     1.0  0.47688  0.96797  0.35968  1.0000
  C   C1570     1.0  0.52232  0.94130  0.37414  1.0000
  C   C1571     1.0  0.47223  0.83492  0.03826  1.0000
  C   C1572     1.0  0.64270  0.85852  0.06474  1.0000
  C   C1573     1.0  0.50144  0.95512  0.33572  1.0000
  H   H2763     1.0  0.39264  0.87829  0.37013  1.0000
  C   C1574     1.0  0.52418  0.92522  0.38959  1.0000
  H   H2764     1.0  0.62069  0.86359  0.09911  1.0000
  H   H2765     1.0  0.56052  0.76162  0.32172  1.0000
  C   C1575     1.0  0.60349  0.83654  0.11457  1.0000
  H   H2766     1.0  0.52170  0.88401  0.04241  1.0000
  H   H2767     1.0  0.63872  0.87083  0.06218  1.0000
  H   H2768     1.0  0.50348  0.94594  0.40104  1.0000
  H   H2769     1.0  0.47513  0.94631  0.41013  1.0000
  C   C1576     1.0  0.64252  0.81561  0.27740  1.0000
  H   H2770     1.0  0.39204  0.85473  0.36907  1.0000
  H   H2771     1.0  0.63670  0.83437  0.36323  1.0000
  H   H2772     1.0  0.59964  0.85839  0.13823  1.0000
  H   H2773     1.0  0.46767  0.80804  0.01976  1.0000
  H   H2774     1.0  0.61301  0.79841  0.31617  1.0000
  H   H2775     1.0  0.49920  0.97393  0.16451  1.0000
  H   H2776     1.0  0.62888  0.82528  0.24600  1.0000
  H   H2777     1.0  0.33591  0.82843  0.26336  1.0000
  H   H2778     1.0  0.36203  0.84939  0.29186  1.0000
  H   H2779     1.0  0.38600  0.85282  0.32112  1.0000
  C   C1577     1.0  0.39820  0.86165  0.27201  1.0000
  H   H2780     1.0  0.37947  0.88929  0.32967  1.0000
  H   H2781     1.0  0.52789  0.97977  0.06618  1.0000
  S   S351      1.0  0.64242  0.85200  0.41849  1.0000
  C   C1578     1.0  0.51697  0.89303  0.05502  1.0000
  C   C1579     1.0  0.64696  0.80328  0.07044  1.0000
  H   H2782     1.0  0.47424  0.96702  0.16005  1.0000
  C   C1580     1.0  0.33245  0.84076  0.25862  1.0000
  H   H2783     1.0  0.52443  0.92810  0.41097  1.0000
  H   H2784     1.0  0.51237  0.91180  0.38452  1.0000
  H   H2785     1.0  0.51803  0.79746  0.42570  1.0000
  H   H2786     1.0  0.57282  0.83223  0.04578  1.0000
  H   H2787     1.0  0.49210  0.89910  0.06112  1.0000
  C   C1581     1.0  0.49578  0.88860  0.05014  1.0000
  H   H2788     1.0  0.46038  0.86243  0.00949  1.0000
  H   H2789     1.0  0.49694  0.93978  0.33154  1.0000
  S   S352      1.0  0.58931  0.79129  0.99845  1.0000
  H   H2790     1.0  0.47446  0.85047  0.08915  1.0000
  H   H2791     1.0  0.52345  0.93833  0.35313  1.0000
  H   H2792     1.0  0.42788  0.85092  0.02472  1.0000
  H   H2793     1.0  0.52456  0.92316  0.06035  1.0000
  C   C1582     1.0  0.49443  0.95959  0.28784  1.0000
  C   C1583     1.0  0.39250  0.87877  0.27033  1.0000
  Fe  Fe174     1.0  0.47761  0.88853  0.45806  1.0000
  N   N87       1.0  0.47443  0.97944  0.08042  1.0000
  H   H2794     1.0  0.41442  0.84870  0.25117  1.0000
  C   C1584     1.0  0.61729  0.77578  0.33569  1.0000
  H   H2795     1.0  0.63960  0.80961  0.23548  1.0000
  C   C1585     1.0  0.43858  0.96273  0.07206  1.0000
  C   C1586     1.0  0.45868  0.96766  0.06203  1.0000
  H   H2796     1.0  0.49896  0.86245  0.08696  1.0000
  H   H2797     1.0  0.45259  0.85410  0.05938  1.0000
  H   H2798     1.0  0.33446  0.85846  0.08851  1.0000
  S   S353      1.0  0.49580  0.92567  0.99963  1.0000
  C   C1587     1.0  0.62180  0.84978  0.10192  1.0000
  H   H2799     1.0  0.52012  0.89094  0.07575  1.0000
  H   H2800     1.0  0.62677  0.83002  0.29452  1.0000
  H   H2801     1.0  0.31733  0.85438  0.12527  1.0000
  H   H2802     1.0  0.48577  0.97412  0.98824  1.0000
  H   H2803     1.0  0.46399  0.88598  0.01930  1.0000
  H   H2804     1.0  0.47106  0.82895  0.05809  1.0000
  H   H2805     1.0  0.60201  0.76733  0.33682  1.0000
  H   H2806     1.0  0.38584  0.84825  0.27108  1.0000
  H   H2807     1.0  0.38779  0.87984  0.24984  1.0000
  H   H2808     1.0  0.59903  0.82336  0.06520  1.0000
  C   C1588     1.0  0.37355  0.89634  0.28344  1.0000
  C   C1589     1.0  0.48046  0.95735  0.37049  1.0000
  H   H2809     1.0  0.47176  0.95424  0.10124  1.0000
  C   C1590     1.0  0.64326  0.83255  0.98718  1.0000
  C   C1591     1.0  0.35999  0.86238  0.28665  1.0000
  H   H2810     1.0  0.46062  0.96763  0.11613  1.0000
  H   H2811     1.0  0.58595  0.83314  0.01656  1.0000
  H   H2812     1.0  0.59101  0.83464  0.10183  1.0000
  H   H2813     1.0  0.54381  0.91634  0.05268  1.0000
  H   H2814     1.0  0.34975  0.86354  0.30089  1.0000
  C   C1592     1.0  0.44648  0.98686  0.29184  1.0000
  C   C1593     1.0  0.47821  0.82264  0.01983  1.0000
  C   C1594     1.0  0.60233  0.85053  0.04936  1.0000
  H   H2815     1.0  0.62047  0.81447  0.09025  1.0000
  H   H2816     1.0  0.45815  0.83395  0.03133  1.0000
  H   H2817     1.0  0.52700  0.91578  0.02735  1.0000
  H   H2818     1.0  0.40648  0.86257  0.29040  1.0000
  C   C1595     1.0  0.61050  0.83581  0.05758  1.0000
  C   C1596     1.0  0.49034  0.97778  0.12507  1.0000
  S   S354      1.0  0.46298  0.98637  0.21590  1.0000
  H   H2819     1.0  0.46027  0.87846  0.06495  1.0000
  H   H2820     1.0  0.50052  0.85501  0.04352  1.0000
  C   C1597     1.0  0.41071  0.86120  0.24956  1.0000
  C   C1598     1.0  0.38285  0.86337  0.33267  1.0000
  H   H2821     1.0  0.45987  0.97435  0.04259  1.0000
  C   C1599     1.0  0.42388  0.95394  0.05017  1.0000
  H   H2822     1.0  0.39415  0.91751  0.31016  1.0000
  H   H2823     1.0  0.35957  0.85692  0.24412  1.0000
  C   C1600     1.0  0.64124  0.82143  0.24911  1.0000
  H   H2824     1.0  0.36797  0.85685  0.33844  1.0000
  S   S355      1.0  0.48461  0.86252  0.45326  1.0000
  H   H2825     1.0  0.36069  0.85762  0.06335  1.0000
  H   H2826     1.0  0.34582  0.87023  0.25336  1.0000
  C   C1601     1.0  0.38589  0.88150  0.31730  1.0000
  Fe  Fe175     1.0  0.48873  0.93087  0.46240  1.0000
  H   H2827     1.0  0.52016  0.95956  0.04441  1.0000
  C   C1602     1.0  0.49752  0.96615  0.06033  1.0000
  H   H2828     1.0  0.62816  0.87916  0.34899  1.0000
  H   H2829     1.0  0.47088  0.87986  0.10504  1.0000
  C   C1603     1.0  0.50008  0.98957  0.22125  1.0000
  H   H2830     1.0  0.41027  0.87309  0.35278  1.0000
  C   C1604     1.0  0.45685  0.87101  0.02431  1.0000
  H   H2831     1.0  0.36114  0.89592  0.29456  1.0000
  H   H2832     1.0  0.53751  0.92372  0.38485  1.0000
  C   C1605     1.0  0.48743  0.87203  0.13300  1.0000
  N   N88       1.0  0.62694  0.84268  0.07685  1.0000
  N   N89       1.0  0.37810  0.87938  0.28943  1.0000
  C   C1606     1.0  0.51482  0.97722  0.37386  1.0000
  H   H2833     1.0  0.42393  0.87385  0.25047  1.0000
  C   C1607     1.0  0.64168  0.80908  0.33369  1.0000
  H   H2834     1.0  0.61399  0.80010  0.35129  1.0000
  H   H2835     1.0  0.50909  0.96922  0.28438  1.0000
  H   H2836     1.0  0.55117  0.75011  0.01683  1.0000
  H   H2837     1.0  0.60384  0.82255  0.11823  1.0000
  H   H2838     1.0  0.37889  0.93097  0.26162  1.0000
  H   H2839     1.0  0.47926  0.82791  0.99952  1.0000
  C   C1608     1.0  0.50914  0.84460  0.44963  1.0000
  H   H2840     1.0  0.40174  0.91744  0.27731  1.0000
  N   N90       1.0  0.50001  0.95870  0.36469  1.0000
  C   C1609     1.0  0.49281  0.98345  0.06717  1.0000
  C   C1610     1.0  0.63269  0.82657  0.08339  1.0000
  C   C1611     1.0  0.35084  0.84448  0.07189  1.0000
  H   H2841     1.0  0.53443  0.95423  0.38008  1.0000
  H   H2842     1.0  0.52946  0.86315  0.99467  1.0000
  C   C1612     1.0  0.48929  0.96132  0.31619  1.0000
  Fe  Fe176     1.0  0.58378  0.74823  0.18178  1.0000
  H   H2843     1.0  0.63061  0.80207  0.28007  1.0000
  C   C1613     1.0  0.32422  0.86105  0.19204  1.0000
  H   H2844     1.0  0.48789  0.95756  0.04447  1.0000
  C   C1614     1.0  0.63498  0.83700  0.34211  1.0000
  H   H2845     1.0  0.48764  0.97131  0.40939  1.0000
  H   H2846     1.0  0.49202  0.82253  0.02631  1.0000
  H   H2847     1.0  0.62295  0.86057  0.37210  1.0000
  H   H2848     1.0  0.51630  0.96148  0.32970  1.0000
  H   H2849     1.0  0.55278  0.98964  0.15812  1.0000
  C   C1615     1.0  0.31787  0.82804  0.08859  1.0000
  H   H2850     1.0  0.62446  0.77327  0.35351  1.0000
  H   H2851     1.0  0.63361  0.80634  0.46044  1.0000
  H   H2852     1.0  0.31775  0.88323  0.10277  1.0000
  H   H2853     1.0  0.50337  0.97744  0.11680  1.0000
  H   H2854     1.0  0.32382  0.82784  0.10865  1.0000
  H   H2855     1.0  0.47422  0.95222  0.31798  1.0000
  H   H2856     1.0  0.32666  0.84869  0.05658  1.0000
  H   H2857     1.0  0.51941  0.98128  0.03330  1.0000
  H   H2858     1.0  0.43131  0.87419  0.03664  1.0000
  H   H2859     1.0  0.56610  0.74449  0.05682  1.0000
  H   H2860     1.0  0.43207  0.86980  0.00214  1.0000
  C   C1616     1.0  0.64140  0.83064  0.29695  1.0000
  H   H2861     1.0  0.47828  0.96549  0.45671  1.0000
  H   H2862     1.0  0.61069  0.85634  0.34053  1.0000
  H   H2863     1.0  0.45910  0.97576  0.39459  1.0000
  H   H2864     1.0  0.51682  0.97757  0.39559  1.0000
  H   H2865     1.0  0.48577  0.95246  0.14705  1.0000
  H   H2866     1.0  0.63909  0.81341  0.41159  1.0000
  C   C1617     1.0  0.63962  0.85831  0.33947  1.0000
  C   C1618     1.0  0.33187  0.84596  0.07580  1.0000
  H   H2867     1.0  0.64318  0.84326  0.00166  1.0000
  H   H2868     1.0  0.32569  0.83845  0.23875  1.0000
  H   H2869     1.0  0.42536  0.96415  0.03438  1.0000
  H   H2870     1.0  0.47466  0.98930  0.28652  1.0000
  H   H2871     1.0  0.52997  0.75075  0.14747  1.0000
  H   H2872     1.0  0.63298  0.81867  0.99298  1.0000
  H   H2873     1.0  0.64520  0.85454  0.04467  1.0000
  C   C1619     1.0  0.64098  0.81890  0.06080  1.0000
  C   C1620     1.0  0.49520  0.98860  0.98852  1.0000
  N   N91       1.0  0.64622  0.82903  0.32549  1.0000
  H   H2874     1.0  0.49304  0.99061  0.04835  1.0000
  H   H2875     1.0  0.57208  0.74363  0.10017  1.0000
  H   H2876     1.0  0.64230  0.84741  0.47990  1.0000
  H   H2877     1.0  0.64747  0.80889  0.35382  1.0000
  H   H2878     1.0  0.49262  0.99249  0.13004  1.0000
  S   S356      1.0  0.64787  0.79778  0.15718  1.0000
  H   H2879     1.0  0.52905  0.99279  0.22619  1.0000
  H   H2880     1.0  0.52889  0.97242  0.83443  1.0000
  S   S357      1.0  0.47026  0.94046  0.96103  1.0000
  H   H2881     1.0  0.33830  0.86126  0.58708  1.0000
  Fe  Fe177     1.0  0.49430  0.90507  0.96720  1.0000
  S   S358      1.0  0.46299  0.89619  0.95994  1.0000
  H   H2882     1.0  0.53122  0.98629  0.77776  1.0000
  Fe  Fe178     1.0  0.47095  0.91956  0.93054  1.0000
  S   S359      1.0  0.45650  0.92445  0.89318  1.0000
  H   H2883     1.0  0.36539  0.93861  0.77028  1.0000
  S   S360      1.0  0.43597  0.90476  0.52510  1.0000
  S   S361      1.0  0.50213  0.92700  0.93605  1.0000
  H   H2884     1.0  0.63865  0.83588  0.96782  1.0000
  Fe  Fe179     1.0  0.44058  0.91349  0.73952  1.0000
  S   S362      1.0  0.42439  0.93202  0.74347  1.0000
  S   S363      1.0  0.44805  0.89819  0.77317  1.0000
  Fe  Fe180     1.0  0.44602  0.92092  0.68050  1.0000
  S   S364      1.0  0.43049  0.94030  0.68081  1.0000
  S   S365      1.0  0.46142  0.91528  0.64592  1.0000
  Fe  Fe181     1.0  0.44670  0.95195  0.71855  1.0000
  H   H2885     1.0  0.51566  0.98965  0.87848  1.0000
  Fe  Fe182     1.0  0.40953  0.91838  0.70557  1.0000
  S   S366      1.0  0.37810  0.91152  0.69772  1.0000
  S   S367      1.0  0.46362  0.93409  0.71669  1.0000
  S   S368      1.0  0.42432  0.89838  0.70314  1.0000
  Fe  Fe183     1.0  0.61007  0.83310  0.92437  1.0000
  S   S369      1.0  0.60305  0.80252  0.92953  1.0000
  H   H2886     1.0  0.50075  0.95247  0.84856  1.0000
  Fe  Fe184     1.0  0.56874  0.82826  0.92592  1.0000
  S   S370      1.0  0.55924  0.79701  0.93164  1.0000
  S   S371      1.0  0.54902  0.84250  0.91263  1.0000
  Fe  Fe185     1.0  0.58380  0.80469  0.96081  1.0000
  H   H2887     1.0  0.62247  0.80004  0.84149  1.0000
  Fe  Fe186     1.0  0.57965  0.79801  0.90013  1.0000
  S   S372      1.0  0.57350  0.77677  0.86616  1.0000
  S   S373      1.0  0.59209  0.83593  0.95680  1.0000
  S   S374      1.0  0.58788  0.82851  0.89325  1.0000
  H   H2888     1.0  0.41727  0.86335  0.74251  1.0000
  S   S375      1.0  0.56331  0.75756  0.68457  1.0000
  Fe  Fe187     1.0  0.61669  0.78098  0.67019  1.0000
  S   S376      1.0  0.59816  0.79715  0.67314  1.0000
  H   H2889     1.0  0.39858  0.91699  0.60938  1.0000
  Fe  Fe188     1.0  0.58643  0.77962  0.70856  1.0000
  S   S377      1.0  0.58526  0.79677  0.74502  1.0000
  Fe  Fe189     1.0  0.57728  0.77362  0.64888  1.0000
  S   S378      1.0  0.56048  0.77788  0.61371  1.0000
  S   S379      1.0  0.60605  0.76435  0.70647  1.0000
  S   S380      1.0  0.59645  0.75826  0.64402  1.0000
  H   H2890     1.0  0.49433  0.92011  0.87405  1.0000
  C   C1621     1.0  0.58164  0.78556  0.52923  1.0000
  C   C1622     1.0  0.56421  0.78610  0.53491  1.0000
  C   C1623     1.0  0.55786  0.78361  0.56083  1.0000
  C   C1624     1.0  0.56888  0.78065  0.58131  1.0000
  C   C1625     1.0  0.58618  0.77985  0.57551  1.0000
  C   C1626     1.0  0.59240  0.78208  0.54960  1.0000
  H   H2891     1.0  0.55557  0.78825  0.51931  1.0000
  H   H2892     1.0  0.54435  0.78404  0.56504  1.0000
  H   H2893     1.0  0.59481  0.77752  0.59099  1.0000
  H   H2894     1.0  0.53511  0.84569  0.61401  1.0000
  C   C1627     1.0  0.57717  0.78257  0.83259  1.0000
  C   C1628     1.0  0.58719  0.80091  0.82470  1.0000
  C   C1629     1.0  0.58960  0.80496  0.79787  1.0000
  C   C1630     1.0  0.58247  0.79068  0.77857  1.0000
  C   C1631     1.0  0.57273  0.77228  0.78648  1.0000
  C   C1632     1.0  0.57001  0.76829  0.81332  1.0000
  H   H2895     1.0  0.59314  0.81196  0.83928  1.0000
  H   H2896     1.0  0.59715  0.81924  0.79200  1.0000
  H   H2897     1.0  0.56707  0.76117  0.77188  1.0000
  H   H2898     1.0  0.62156  0.75406  0.85563  1.0000
  C   C1633     1.0  0.35718  0.89081  0.69701  1.0000
  C   C1634     1.0  0.35736  0.87297  0.70083  1.0000
  C   C1635     1.0  0.34037  0.85706  0.70024  1.0000
  H   H2899     1.0  0.39483  0.88483  0.59101  1.0000
  H   H2900     1.0  0.52600  0.99107  0.72532  1.0000
  C   C1636     1.0  0.33980  0.89243  0.69229  1.0000
  H   H2901     1.0  0.37058  0.87143  0.70415  1.0000
  H   H2902     1.0  0.34068  0.84334  0.70329  1.0000
  H   H2903     1.0  0.37798  0.93503  0.64468  1.0000
  H   H2904     1.0  0.33945  0.90613  0.68923  1.0000
  H   H2905     1.0  0.49177  0.97364  0.71752  1.0000
  C   C1637     1.0  0.53839  0.85479  0.93184  1.0000
  C   C1638     1.0  0.53861  0.85432  0.95919  1.0000
  H   H2906     1.0  0.51665  0.93419  0.79020  1.0000
  C   C1639     1.0  0.51999  0.87388  0.96078  1.0000
  C   C1640     1.0  0.51993  0.87451  0.93346  1.0000
  C   C1641     1.0  0.52900  0.86493  0.91909  1.0000
  H   H2907     1.0  0.48530  0.93382  0.82872  1.0000
  S   S381      1.0  0.50818  0.88502  0.97991  1.0000
  H   H2908     1.0  0.51275  0.88223  0.92340  1.0000
  H   H2909     1.0  0.52875  0.86539  0.89797  1.0000
  C   C1642     1.0  0.44379  0.90860  0.55840  1.0000
  C   C1643     1.0  0.43252  0.91254  0.57691  1.0000
  C   C1644     1.0  0.43787  0.91491  0.60371  1.0000
  C   C1645     1.0  0.45448  0.91324  0.61229  1.0000
  C   C1646     1.0  0.46597  0.90974  0.59372  1.0000
  C   C1647     1.0  0.46067  0.90744  0.56692  1.0000
  H   H2910     1.0  0.41960  0.91375  0.57044  1.0000
  H   H2911     1.0  0.42919  0.91794  0.61782  1.0000
  H   H2912     1.0  0.47889  0.90850  0.60016  1.0000
  H   H2913     1.0  0.46945  0.90435  0.55293  1.0000
  C   C1648     1.0  0.45387  0.91642  0.86012  1.0000
  C   C1649     1.0  0.45823  0.90125  0.85201  1.0000
  C   C1650     1.0  0.45626  0.89578  0.82534  1.0000
  C   C1651     1.0  0.44996  0.90539  0.80652  1.0000
  C   C1652     1.0  0.44540  0.92042  0.81466  1.0000
  C   C1653     1.0  0.44724  0.92581  0.84133  1.0000
  H   H2914     1.0  0.46308  0.89372  0.86627  1.0000
  H   H2915     1.0  0.45971  0.88406  0.81924  1.0000
  H   H2916     1.0  0.44049  0.92792  0.80044  1.0000
  H   H2917     1.0  0.44371  0.93747  0.84743  1.0000
  H   H2918     1.0  0.40144  0.88957  0.63469  1.0000
  N   N92       1.0  0.37267  0.88114  0.78585  1.0000
  C   C1654     1.0  0.37779  0.86729  0.77001  1.0000
  C   C1655     1.0  0.35268  0.87153  0.79424  1.0000
  C   C1656     1.0  0.37485  0.89774  0.76903  1.0000
  C   C1657     1.0  0.38535  0.88799  0.80984  1.0000
  C   C1658     1.0  0.38599  0.87260  0.82870  1.0000
  C   C1659     1.0  0.39887  0.87326  0.76400  1.0000
  C   C1660     1.0  0.36824  0.91266  0.78093  1.0000
  C   C1661     1.0  0.33747  0.86587  0.77178  1.0000
  C   C1662     1.0  0.40123  0.88092  0.85008  1.0000
  C   C1663     1.0  0.40204  0.85884  0.74614  1.0000
  C   C1664     1.0  0.36940  0.92767  0.76104  1.0000
  H   H2919     1.0  0.37004  0.86434  0.75083  1.0000
  H   H2920     1.0  0.37318  0.85347  0.77968  1.0000
  H   H2921     1.0  0.35097  0.85841  0.80465  1.0000
  H   H2922     1.0  0.34911  0.88030  0.80888  1.0000
  H   H2923     1.0  0.36752  0.89307  0.74976  1.0000
  H   H2924     1.0  0.38978  0.90530  0.76426  1.0000
  H   H2925     1.0  0.39994  0.89667  0.80418  1.0000
  H   H2926     1.0  0.38090  0.89756  0.82184  1.0000
  H   H2927     1.0  0.38902  0.86145  0.81838  1.0000
  H   H2928     1.0  0.37236  0.86604  0.83842  1.0000
  H   H2929     1.0  0.40429  0.88691  0.75411  1.0000
  H   H2930     1.0  0.40741  0.87451  0.78221  1.0000
  H   H2931     1.0  0.37728  0.91981  0.79812  1.0000
  H   H2932     1.0  0.35350  0.90640  0.78707  1.0000
  H   H2933     1.0  0.54320  0.81123  0.49065  1.0000
  H   H2934     1.0  0.33970  0.85593  0.75777  1.0000
  C   C1665     1.0  0.38988  0.91664  0.62643  1.0000
  H   H2935     1.0  0.40105  0.86984  0.86387  1.0000
  H   H2936     1.0  0.41528  0.88674  0.84133  1.0000
  H   H2937     1.0  0.39894  0.89221  0.86129  1.0000
  H   H2938     1.0  0.39721  0.84494  0.75548  1.0000
  H   H2939     1.0  0.39447  0.85762  0.72702  1.0000
  H   H2940     1.0  0.52924  0.77132  0.88332  1.0000
  H   H2941     1.0  0.38389  0.93444  0.75388  1.0000
  H   H2942     1.0  0.35962  0.92142  0.74409  1.0000
  H   H2943     1.0  0.55067  0.83357  0.61965  1.0000
  C   C1666     1.0  0.38727  0.87878  0.63823  1.0000
  H   H2944     1.0  0.46558  0.98296  0.54067  1.0000
  H   H2945     1.0  0.55969  0.85894  0.62100  1.0000
  H   H2946     1.0  0.64591  0.83942  0.85021  1.0000
  S   S382      1.0  0.59034  0.78832  0.49704  1.0000
  C   C1667     1.0  0.53580  0.81645  0.50521  1.0000
  C   C1668     1.0  0.38951  0.85964  0.63749  1.0000
  C   C1669     1.0  0.40659  0.86031  0.65388  1.0000
  H   H2947     1.0  0.50971  0.77508  0.86794  1.0000
  H   H2948     1.0  0.60930  0.76920  0.85395  1.0000
  H   H2949     1.0  0.39125  0.85551  0.61718  1.0000
  H   H2950     1.0  0.37708  0.84852  0.64575  1.0000
  C   C1670     1.0  0.63778  0.81807  0.73470  1.0000
  H   H2951     1.0  0.38051  0.90540  0.57268  1.0000
  H   H2952     1.0  0.40467  0.86277  0.67483  1.0000
  H   H2953     1.0  0.40828  0.84671  0.65199  1.0000
  H   H2954     1.0  0.41961  0.87154  0.64713  1.0000
  N   N93       1.0  0.54252  0.82340  0.82769  1.0000
  C   C1671     1.0  0.53310  0.83645  0.81948  1.0000
  C   C1672     1.0  0.54431  0.81253  0.80394  1.0000
  C   C1673     1.0  0.53088  0.81055  0.84822  1.0000
  C   C1674     1.0  0.56189  0.83410  0.83925  1.0000
  C   C1675     1.0  0.57523  0.85000  0.82240  1.0000
  C   C1676     1.0  0.53196  0.85025  0.84107  1.0000
  C   C1677     1.0  0.53732  0.79473  0.85702  1.0000
  C   C1678     1.0  0.52572  0.79851  0.79131  1.0000
  C   C1679     1.0  0.52965  0.78782  0.76836  1.0000
  C   C1680     1.0  0.59446  0.85940  0.83612  1.0000
  C   C1681     1.0  0.52312  0.86343  0.83018  1.0000
  C   C1682     1.0  0.52400  0.78217  0.87685  1.0000
  H   H2955     1.0  0.51840  0.82827  0.81263  1.0000
  H   H2956     1.0  0.54007  0.84469  0.80228  1.0000
  H   H2957     1.0  0.55160  0.82223  0.78820  1.0000
  H   H2958     1.0  0.55342  0.80469  0.80856  1.0000
  H   H2959     1.0  0.51587  0.80414  0.84171  1.0000
  H   H2960     1.0  0.53102  0.81867  0.86636  1.0000
  H   H2961     1.0  0.56115  0.84012  0.85887  1.0000
  H   H2962     1.0  0.56913  0.82438  0.84289  1.0000
  H   H2963     1.0  0.56957  0.86100  0.81886  1.0000
  H   H2964     1.0  0.57749  0.84445  0.80325  1.0000
  H   H2965     1.0  0.52317  0.84253  0.85730  1.0000
  H   H2966     1.0  0.54602  0.85906  0.84940  1.0000
  H   H2967     1.0  0.55142  0.80078  0.86665  1.0000
  H   H2968     1.0  0.53783  0.78567  0.84035  1.0000
  H   H2969     1.0  0.51750  0.78798  0.80549  1.0000
  H   H2970     1.0  0.51696  0.80597  0.78369  1.0000
  H   H2971     1.0  0.53773  0.77943  0.77524  1.0000
  H   H2972     1.0  0.60579  0.78137  0.54537  1.0000
  H   H2973     1.0  0.53780  0.79765  0.75329  1.0000
  H   H2974     1.0  0.59310  0.86538  0.85547  1.0000
  H   H2975     1.0  0.35510  0.85123  0.62001  1.0000
  C   C1683     1.0  0.47190  0.97321  0.53311  1.0000
  H   H2976     1.0  0.50867  0.85535  0.82236  1.0000
  H   H2977     1.0  0.52233  0.87299  0.84607  1.0000
  H   H2978     1.0  0.53174  0.87205  0.81440  1.0000
  H   H2979     1.0  0.52330  0.79053  0.89432  1.0000
  H   H2980     1.0  0.31976  0.83577  0.61671  1.0000
  H   H2981     1.0  0.52636  0.93763  0.83598  1.0000
  C   C1684     1.0  0.33706  0.86483  0.60783  1.0000
  H   H2982     1.0  0.39803  0.91638  0.64452  1.0000
  H   H2983     1.0  0.63239  0.87368  0.48394  1.0000
  C   C1685     1.0  0.35436  0.86509  0.62406  1.0000
  C   C1686     1.0  0.64587  0.83437  0.82979  1.0000
  H   H2984     1.0  0.46650  0.95432  0.57806  1.0000
  Fe  Fe190     1.0  0.45442  0.90500  0.49058  1.0000
  C   C1687     1.0  0.37806  0.88503  0.54275  1.0000
  C   C1688     1.0  0.51041  0.93428  0.73790  1.0000
  H   H2985     1.0  0.44728  0.94849  0.54438  1.0000
  H   H2986     1.0  0.51474  0.99150  0.56514  1.0000
  C   C1689     1.0  0.48845  0.97441  0.82260  1.0000
  C   C1690     1.0  0.58501  0.88993  0.50050  1.0000
  H   H2987     1.0  0.63984  0.80677  0.86663  1.0000
  N   N94       1.0  0.37293  0.88079  0.61905  1.0000
  H   H2988     1.0  0.54225  0.83385  0.57261  1.0000
  H   H2989     1.0  0.51682  0.96181  0.57083  1.0000
  C   C1691     1.0  0.51346  0.95900  0.54971  1.0000
  S   S383      1.0  0.48477  0.90869  0.49265  1.0000
  C   C1692     1.0  0.63624  0.77530  0.81620  1.0000
  C   C1693     1.0  0.63707  0.80129  0.84615  1.0000
  C   C1694     1.0  0.47944  0.98755  0.81206  1.0000
  H   H2990     1.0  0.50272  0.95653  0.75133  1.0000
  H   H2991     1.0  0.50114  0.98280  0.83448  1.0000
  H   H2992     1.0  0.56969  0.88534  0.49626  1.0000
  N   N95       1.0  0.50704  0.95467  0.80728  1.0000
  H   H2993     1.0  0.51363  0.94053  0.71824  1.0000
  H   H2994     1.0  0.48592  0.96709  0.89461  1.0000
  C   C1695     1.0  0.60169  0.83292  0.56187  1.0000
  N   N96       1.0  0.63853  0.78240  0.84415  1.0000
  C   C1696     1.0  0.48223  0.96606  0.62767  1.0000
  C   C1697     1.0  0.37120  0.89924  0.62497  1.0000
  C   C1698     1.0  0.32295  0.85868  0.69566  1.0000
  H   H2995     1.0  0.52368  0.97074  0.53886  1.0000
  H   H2996     1.0  0.62550  0.78599  0.89550  1.0000
  H   H2997     1.0  0.37033  0.86990  0.53816  1.0000
  H   H2998     1.0  0.37892  0.93631  0.60929  1.0000
  H   H2999     1.0  0.39339  0.88839  0.54177  1.0000
  H   H3000     1.0  0.50655  0.92888  0.55185  1.0000
  H   H3001     1.0  0.60368  0.87094  0.82398  1.0000
  H   H3002     1.0  0.62970  0.80272  0.73320  1.0000
  N   N97       1.0  0.57896  0.84917  0.54843  1.0000
  C   C1699     1.0  0.57982  0.86789  0.53884  1.0000
  C   C1700     1.0  0.57287  0.84699  0.57649  1.0000
  H   H3003     1.0  0.51540  0.93913  0.52068  1.0000
  C   C1701     1.0  0.56621  0.83284  0.53154  1.0000
  C   C1702     1.0  0.54910  0.83504  0.51745  1.0000
  C   C1703     1.0  0.58949  0.87397  0.51231  1.0000
  H   H3004     1.0  0.46688  0.97967  0.79946  1.0000
  C   C1704     1.0  0.55307  0.84670  0.58154  1.0000
  H   H3005     1.0  0.55378  0.84522  0.50141  1.0000
  C   C1705     1.0  0.50929  0.92622  0.86874  1.0000
  H   H3006     1.0  0.58759  0.87917  0.55345  1.0000
  H   H3007     1.0  0.56565  0.86835  0.53718  1.0000
  C   C1706     1.0  0.49321  0.96350  0.80011  1.0000
  H   H3008     1.0  0.58323  0.85831  0.58902  1.0000
  H   H3009     1.0  0.49106  0.96359  0.64356  1.0000
  C   C1707     1.0  0.59866  0.84942  0.54816  1.0000
  H   H3010     1.0  0.57414  0.82933  0.51578  1.0000
  H   H3011     1.0  0.56078  0.82001  0.54344  1.0000
  H   H3012     1.0  0.60490  0.76777  0.76294  1.0000
  H   H3013     1.0  0.59512  0.75862  0.89710  1.0000
  H   H3014     1.0  0.63253  0.82473  0.71886  1.0000
  H   H3015     1.0  0.62192  0.81975  0.56474  1.0000
  C   C1708     1.0  0.52672  0.96887  0.81309  1.0000
  H   H3016     1.0  0.55120  0.85922  0.57373  1.0000
  H   H3017     1.0  0.47241  0.97845  0.58413  1.0000
  H   H3018     1.0  0.61632  0.75262  0.77386  1.0000
  H   H3019     1.0  0.58514  0.86212  0.49797  1.0000
  H   H3020     1.0  0.58969  0.90229  0.51404  1.0000
  H   H3021     1.0  0.63721  0.82725  0.66472  1.0000
  H   H3022     1.0  0.58998  0.81952  0.55705  1.0000
  H   H3023     1.0  0.46018  0.94394  0.51816  1.0000
  H   H3024     1.0  0.43562  0.96718  0.51437  1.0000
  H   H3025     1.0  0.61925  0.82778  0.53252  1.0000
  C   C1709     1.0  0.31903  0.84985  0.61763  1.0000
  C   C1710     1.0  0.53286  0.98800  0.79926  1.0000
  H   H3026     1.0  0.61017  0.76025  0.92522  1.0000
  C   C1711     1.0  0.49886  0.97182  0.90728  1.0000
  C   C1712     1.0  0.37312  0.89004  0.56982  1.0000
  H   H3027     1.0  0.53089  0.75007  0.64454  1.0000
  C   C1713     1.0  0.62310  0.76874  0.85989  1.0000
  H   H3028     1.0  0.49400  0.95362  0.59921  1.0000
  H   H3029     1.0  0.60497  0.87903  0.51521  1.0000
  H   H3030     1.0  0.63008  0.77579  0.76213  1.0000
  H   H3031     1.0  0.36438  0.89863  0.64405  1.0000
  H   H3032     1.0  0.60579  0.76701  0.81080  1.0000
  H   H3033     1.0  0.63517  0.76052  0.81550  1.0000
  H   H3034     1.0  0.42978  0.94349  0.50250  1.0000
  H   H3035     1.0  0.50549  0.91734  0.82831  1.0000
  H   H3036     1.0  0.35789  0.88689  0.56964  1.0000
  C   C1714     1.0  0.50324  0.99103  0.55140  1.0000
  H   H3037     1.0  0.51577  0.91597  0.87341  1.0000
  H   H3038     1.0  0.50551  0.96146  0.90537  1.0000
  H   H3039     1.0  0.49255  0.92974  0.78356  1.0000
  H   H3040     1.0  0.49239  0.95611  0.52048  1.0000
  C   C1715     1.0  0.51257  0.99108  0.89923  1.0000
  H   H3041     1.0  0.52687  0.95969  0.75840  1.0000
  H   H3042     1.0  0.33758  0.87824  0.76082  1.0000
  H   H3043     1.0  0.40004  0.94693  0.62928  1.0000
  H   H3044     1.0  0.64139  0.81791  0.92777  1.0000
  H   H3045     1.0  0.49495  0.97221  0.92797  1.0000
  H   H3046     1.0  0.35107  0.86522  0.64517  1.0000
  H   H3047     1.0  0.37416  0.89324  0.52764  1.0000
  H   H3048     1.0  0.47822  0.97902  0.51428  1.0000
  H   H3049     1.0  0.60124  0.84916  0.83899  1.0000
  H   H3050     1.0  0.49810  0.97305  0.78337  1.0000
  H   H3051     1.0  0.63210  0.84445  0.55829  1.0000
  H   H3052     1.0  0.36174  0.90213  0.61056  1.0000
  C   C1716     1.0  0.37921  0.87943  0.59155  1.0000
  C   C1717     1.0  0.45525  0.95442  0.52667  1.0000
  S   S384      1.0  0.45957  0.98284  0.73041  1.0000
  C   C1718     1.0  0.51117  0.93077  0.83970  1.0000
  C   C1719     1.0  0.61756  0.76742  0.77329  1.0000
  H   H3053     1.0  0.48064  0.97949  0.63194  1.0000
  Fe  Fe191     1.0  0.50073  0.94665  0.96791  1.0000
  H   H3054     1.0  0.53115  0.94292  0.54858  1.0000
  H   H3055     1.0  0.49593  0.92343  0.73702  1.0000
  H   H3056     1.0  0.31658  0.85302  0.63813  1.0000
  H   H3057     1.0  0.60252  0.83509  0.58346  1.0000
  H   H3058     1.0  0.52043  0.92752  0.74278  1.0000
  H   H3059     1.0  0.63180  0.83119  0.82049  1.0000
  H   H3060     1.0  0.56233  0.75404  0.81918  1.0000
  C   C1720     1.0  0.47852  0.96808  0.57855  1.0000
  C   C1721     1.0  0.62507  0.77192  0.89005  1.0000
  H   H3061     1.0  0.52383  0.81846  0.49508  1.0000
  H   H3062     1.0  0.51621  0.77814  0.75917  1.0000
  C   C1722     1.0  0.61991  0.83122  0.55377  1.0000
  H   H3063     1.0  0.31662  0.84329  0.79281  1.0000
  C   C1723     1.0  0.50679  0.94119  0.78553  1.0000
  H   H3064     1.0  0.54092  0.84009  0.53080  1.0000
  C   C1724     1.0  0.61880  0.77555  0.80089  1.0000
  S   S385      1.0  0.52233  0.97627  0.97220  1.0000
  H   H3065     1.0  0.60309  0.84937  0.52761  1.0000
  H   H3066     1.0  0.63491  0.86550  0.51621  1.0000
  H   H3067     1.0  0.51660  0.93912  0.88079  1.0000
  H   H3068     1.0  0.46821  0.95446  0.62768  1.0000
  C   C1725     1.0  0.51211  0.94958  0.75814  1.0000
  H   H3069     1.0  0.33528  0.87836  0.60906  1.0000
  H   H3070     1.0  0.48327  0.94310  0.54895  1.0000
  H   H3071     1.0  0.64226  0.82162  0.50396  1.0000
  H   H3072     1.0  0.53017  0.80579  0.52052  1.0000
  C   C1726     1.0  0.38640  0.93481  0.62743  1.0000
  H   H3073     1.0  0.50505  0.97891  0.60230  1.0000
  C   C1727     1.0  0.32282  0.87651  0.69157  1.0000
  C   C1728     1.0  0.49311  0.95699  0.54233  1.0000
  C   C1729     1.0  0.51674  0.94133  0.54225  1.0000
  H   H3074     1.0  0.38401  0.88140  0.65866  1.0000
  H   H3075     1.0  0.47964  0.95254  0.79290  1.0000
  C   C1730     1.0  0.54950  0.84620  0.61087  1.0000
  C   C1731     1.0  0.50028  0.94323  0.83148  1.0000
  C   C1732     1.0  0.60848  0.75755  0.90374  1.0000
  H   H3076     1.0  0.57266  0.83354  0.58442  1.0000
  H   H3077     1.0  0.61932  0.79002  0.79898  1.0000
  H   H3078     1.0  0.37446  0.86447  0.58515  1.0000
  H   H3079     1.0  0.47833  0.96438  0.83577  1.0000
  H   H3080     1.0  0.53723  0.96270  0.80856  1.0000
  C   C1733     1.0  0.44150  0.95715  0.50668  1.0000
  S   S386      1.0  0.63933  0.85377  0.91671  1.0000
  N   N98       1.0  0.48696  0.97232  0.55188  1.0000
  H   H3081     1.0  0.60885  0.86259  0.55754  1.0000
  H   H3082     1.0  0.63798  0.77058  0.89804  1.0000
  C   C1734     1.0  0.31782  0.85623  0.78238  1.0000
  H   H3083     1.0  0.44859  0.96242  0.48806  1.0000
  C   C1735     1.0  0.49148  0.96678  0.60135  1.0000
  H   H3084     1.0  0.63514  0.82315  0.75400  1.0000
  H   H3085     1.0  0.54572  0.84655  0.96923  1.0000
  C   C1736     1.0  0.49683  0.98717  0.72735  1.0000
  H   H3086     1.0  0.56291  0.74459  0.52629  1.0000
  C   C1737     1.0  0.64261  0.87242  0.49875  1.0000
  H   H3087     1.0  0.62937  0.78927  0.48570  1.0000
  C   C1738     1.0  0.52935  0.86373  0.97355  1.0000
  Fe  Fe192     1.0  0.58355  0.74306  0.68064  1.0000
  H   H3088     1.0  0.59235  0.89410  0.48177  1.0000
  H   H3089     1.0  0.60770  0.74312  0.89968  1.0000
  Fe  Fe193     1.0  0.74296  0.18150  0.27655  1.0000
  S   S387      1.0  0.75896  0.21269  0.27139  1.0000
  S   S388      1.0  0.71075  0.17333  0.27566  1.0000
  Fe  Fe194     1.0  0.78031  0.17597  0.28517  1.0000
  S   S389      1.0  0.79761  0.20637  0.28106  1.0000
  S   S390      1.0  0.79494  0.15591  0.29295  1.0000
  Fe  Fe195     1.0  0.77646  0.21097  0.30663  1.0000
  H   H3090     1.0  0.90986  0.19470  0.04826  1.0000
  Fe  Fe196     1.0  0.77863  0.20495  0.24613  1.0000
  H   H3091     1.0  0.84544  0.13297  0.17044  1.0000
  S   S391      1.0  0.76000  0.18043  0.31266  1.0000
  S   S392      1.0  0.76183  0.17393  0.24932  1.0000
  Fe  Fe197     1.0  0.90040  0.13189  0.32104  1.0000
  S   S393      1.0  0.91578  0.16249  0.31466  1.0000
  S   S394      1.0  0.89397  0.11041  0.28736  1.0000
  Fe  Fe198     1.0  0.89850  0.13822  0.38118  1.0000
  S   S395      1.0  0.91446  0.16945  0.37783  1.0000
  S   S396      1.0  0.88141  0.12363  0.41660  1.0000
  Fe  Fe199     1.0  0.89541  0.16656  0.34227  1.0000
  S   S397      1.0  0.88031  0.18626  0.33445  1.0000
  Fe  Fe200     1.0  0.93357  0.16230  0.35037  1.0000
  S   S398      1.0  0.96551  0.17263  0.34354  1.0000
  S   S399      1.0  0.87895  0.13595  0.34656  1.0000
  S   S400      1.0  0.91855  0.13107  0.35594  1.0000
  S   S401      1.0  0.80657  0.21875  0.03496  1.0000
  S   S402      1.0  0.85522  0.21487  0.04368  1.0000
  Fe  Fe201     1.0  0.84287  0.07582  0.09698  1.0000
  S   S403      1.0  0.87434  0.09054  0.10336  1.0000
  S   S404      1.0  0.83438  0.04371  0.09392  1.0000
  Fe  Fe202     1.0  0.83882  0.11400  0.09207  1.0000
  S   S405      1.0  0.86955  0.12988  0.09785  1.0000
  S   S406      1.0  0.82070  0.13108  0.08553  1.0000
  Fe  Fe203     1.0  0.87272  0.10882  0.07000  1.0000
  S   S407      1.0  0.89423  0.11842  0.03783  1.0000
  Fe  Fe204     1.0  0.86786  0.11016  0.13062  1.0000
  S   S408      1.0  0.88257  0.12693  0.16744  1.0000
  S   S409      1.0  0.84188  0.09362  0.06247  1.0000
  S   S410      1.0  0.83658  0.09478  0.12618  1.0000
  C   C1739     1.0  0.84515  0.19150  0.05489  1.0000
  C   C1740     1.0  0.82575  0.18183  0.05665  1.0000
  C   C1741     1.0  0.81844  0.16336  0.06597  1.0000
  C   C1742     1.0  0.83040  0.15423  0.07331  1.0000
  C   C1743     1.0  0.84977  0.16391  0.07141  1.0000
  C   C1744     1.0  0.85708  0.18246  0.06254  1.0000
  H   H3092     1.0  0.81633  0.18850  0.05082  1.0000
  H   H3093     1.0  0.80342  0.15606  0.06725  1.0000
  H   H3094     1.0  0.85918  0.15724  0.07700  1.0000
  H   H3095     1.0  0.87210  0.18992  0.06180  1.0000
  H   H3096     1.0  0.92804  0.10362  0.30726  1.0000
  C   C1745     1.0  0.88943  0.11478  0.25434  1.0000
  C   C1746     1.0  0.88623  0.10063  0.23514  1.0000
  C   C1747     1.0  0.88325  0.10381  0.20857  1.0000
  C   C1748     1.0  0.88370  0.12129  0.20088  1.0000
  C   C1749     1.0  0.88690  0.13543  0.22008  1.0000
  C   C1750     1.0  0.88953  0.13215  0.24669  1.0000
  H   H3097     1.0  0.88635  0.08723  0.24083  1.0000
  H   H3098     1.0  0.88134  0.09303  0.19393  1.0000
  H   H3099     1.0  0.88756  0.14908  0.21438  1.0000
  H   H3100     1.0  0.89189  0.14313  0.26124  1.0000
  C   C1751     1.0  0.88592  0.12023  0.45007  1.0000
  C   C1752     1.0  0.90406  0.12590  0.46111  1.0000
  C   C1753     1.0  0.78733  0.18609  0.09754  1.0000
  C   C1754     1.0  0.88918  0.11943  0.00383  1.0000
  C   C1755     1.0  0.77935  0.17122  0.14222  1.0000
  C   C1756     1.0  0.87055  0.11163  0.46616  1.0000
  H   H3101     1.0  0.91603  0.13229  0.44893  1.0000
  H   H3102     1.0  0.71206  0.13419  0.35891  1.0000
  H   H3103     1.0  0.80343  0.17591  0.18261  1.0000
  H   H3104     1.0  0.85647  0.10689  0.45774  1.0000
  H   H3105     1.0  0.79053  0.15198  0.23171  1.0000
  H   H3106     1.0  0.71890  0.18662  0.40483  1.0000
  N   N99       1.0  0.89410  0.17918  0.99708  1.0000
  C   C1757     1.0  0.82773  0.01409  0.02417  1.0000
  H   H3107     1.0  0.88374  0.04445  0.15556  1.0000
  C   C1758     1.0  0.78707  0.22781  0.37414  1.0000
  C   C1759     1.0  0.78073  0.20952  0.38334  1.0000
  C   C1760     1.0  0.78216  0.20632  0.41027  1.0000
  H   H3108     1.0  0.77459  0.19783  0.36974  1.0000
  H   H3109     1.0  0.77674  0.19211  0.41717  1.0000
  C   C1761     1.0  0.81877  0.16462  0.30413  1.0000
  C   C1762     1.0  0.82838  0.18342  0.31160  1.0000
  C   C1763     1.0  0.84723  0.18985  0.32054  1.0000
  C   C1764     1.0  0.85667  0.17754  0.32247  1.0000
  C   C1765     1.0  0.84704  0.15870  0.31520  1.0000
  C   C1766     1.0  0.82820  0.15229  0.30609  1.0000
  H   H3110     1.0  0.82131  0.19305  0.31066  1.0000
  H   H3111     1.0  0.85457  0.20444  0.32599  1.0000
  H   H3112     1.0  0.85411  0.14907  0.31635  1.0000
  H   H3113     1.0  0.82092  0.13770  0.30049  1.0000
  C   C1767     1.0  0.80034  0.04406  0.17537  1.0000
  C   C1768     1.0  0.79743  0.02144  0.10692  1.0000
  C   C1769     1.0  0.81514  0.02216  0.10004  1.0000
  C   C1770     1.0  0.81803  0.00523  0.09862  1.0000
  Fe  Fe205     1.0  0.83784  0.23247  0.03495  1.0000
  H   H3114     1.0  0.79481  0.03421  0.10793  1.0000
  H   H3115     1.0  0.83160  0.00549  0.09327  1.0000
  C   C1771     1.0  0.71789  0.16357  0.36700  1.0000
  H   H3116     1.0  0.76567  0.22411  0.18064  1.0000
  C   C1772     1.0  0.66895  0.12052  0.27581  1.0000
  C   C1773     1.0  0.68686  0.13528  0.27666  1.0000
  C   C1774     1.0  0.68854  0.15389  0.27428  1.0000
  C   C1775     1.0  0.67195  0.15739  0.27112  1.0000
  H   H3117     1.0  0.85577  0.15278  0.00751  1.0000
  H   H3118     1.0  0.66792  0.10623  0.27766  1.0000
  H   H3119     1.0  0.69936  0.13224  0.27913  1.0000
  H   H3120     1.0  0.67297  0.17168  0.26921  1.0000
  H   H3121     1.0  0.80699  0.15012  0.20833  1.0000
  H   H3122     1.0  0.86280  0.20948  0.46655  1.0000
  H   H3123     1.0  0.93292  0.12209  0.26544  1.0000
  H   H3124     1.0  0.89800  0.05800  0.05021  1.0000
  H   H3125     1.0  0.94648  0.16380  0.28358  1.0000
  H   H3126     1.0  0.72019  0.18041  0.33237  1.0000
  C   C1776     1.0  0.81443  0.01400  0.17601  1.0000
  H   H3127     1.0  0.92866  0.11819  0.22301  1.0000
  H   H3128     1.0  0.80138  0.01179  0.18671  1.0000
  H   H3129     1.0  0.97521  0.20226  0.38471  1.0000
  C   C1777     1.0  0.89225  0.19775  0.00136  1.0000
  C   C1778     1.0  0.68721  0.18071  0.34099  1.0000
  C   C1779     1.0  0.88643  0.22567  0.98380  1.0000
  H   H3130     1.0  0.86810  0.07211  0.42408  1.0000
  C   C1780     1.0  0.66690  0.11064  0.34723  1.0000
  C   C1781     1.0  0.72491  0.18279  0.35323  1.0000
  H   H3131     1.0  0.84810  0.07490  0.25515  1.0000
  H   H3132     1.0  0.94465  0.12284  0.18017  1.0000
  H   H3133     1.0  0.86851  0.05861  0.18670  1.0000
  N   N100      1.0  0.71953  0.19765  0.36584  1.0000
  C   C1782     1.0  0.89970  0.17941  0.47071  1.0000
  C   C1783     1.0  0.90680  0.16998  0.06913  1.0000
  C   C1784     1.0  0.73766  0.23643  0.31279  1.0000
  C   C1785     1.0  0.72476  0.21596  0.41027  1.0000
  H   H3134     1.0  0.69198  0.18483  0.38255  1.0000
  C   C1786     1.0  0.87082  0.11208  0.99340  1.0000
  H   H3135     1.0  0.87989  0.16867  0.03316  1.0000
  H   H3136     1.0  0.66669  0.19370  0.33736  1.0000
  H   H3137     1.0  0.94457  0.11312  0.33421  1.0000
  H   H3138     1.0  0.93351  0.18962  0.27335  1.0000
  C   C1787     1.0  0.79096  0.23542  0.12464  1.0000
  H   H3139     1.0  0.84253  0.03053  0.14574  1.0000
  H   H3140     1.0  0.74162  0.20160  0.39514  1.0000
  C   C1788     1.0  0.69856  0.19275  0.36491  1.0000
  H   H3141     1.0  0.72815  0.20656  0.31171  1.0000
  H   H3142     1.0  0.84917  0.04600  0.45233  1.0000
  C   C1789     1.0  0.73583  0.12824  0.16469  1.0000
  C   C1790     1.0  0.73096  0.18466  0.17484  1.0000
  H   H3143     1.0  0.72295  0.19083  0.16227  1.0000
  C   C1791     1.0  0.81561  0.12188  0.16423  1.0000
  H   H3144     1.0  0.81409  0.10924  0.17561  1.0000
  H   H3145     1.0  0.80334  0.12565  0.16784  1.0000
  H   H3146     1.0  0.81566  0.11845  0.14309  1.0000
  H   H3147     1.0  0.92548  0.13994  0.21900  1.0000
  H   H3148     1.0  0.84884  0.20869  0.10440  1.0000
  C   C1792     1.0  0.90932  0.18049  0.04343  1.0000
  C   C1793     1.0  0.78302  0.00411  0.11279  1.0000
  C   C1794     1.0  0.90403  0.12793  0.98687  1.0000
  C   C1795     1.0  0.94399  0.15910  0.26270  1.0000
  H   H3149     1.0  0.85240  0.02593  0.17538  1.0000
  C   C1796     1.0  0.87685  0.06750  0.03388  1.0000
  H   H3150     1.0  0.82670  0.22755  0.37152  1.0000
  H   H3151     1.0  0.80556  0.06359  0.03969  1.0000
  H   H3152     1.0  0.82404  0.16805  0.46637  1.0000
  C   C1797     1.0  0.65404  0.14260  0.27000  1.0000
  H   H3153     1.0  0.95522  0.12034  0.26378  1.0000
  H   H3154     1.0  0.81881  0.23595  0.12124  1.0000
  H   H3155     1.0  0.82247  0.02144  0.03882  1.0000
  H   H3156     1.0  0.69561  0.20578  0.36589  1.0000
  H   H3157     1.0  0.90197  0.16430  0.43549  1.0000
  H   H3158     1.0  0.87407  0.15582  0.46466  1.0000
  Fe  Fe206     1.0  0.80721  0.23466  0.99793  1.0000
  H   H3159     1.0  0.83501  0.05554  0.03940  1.0000
  H   H3160     1.0  0.92151  0.18609  0.44203  1.0000
  H   H3161     1.0  0.65982  0.17351  0.35833  1.0000
  C   C1798     1.0  0.94306  0.11171  0.31255  1.0000
  C   C1799     1.0  0.83805  0.05805  0.21958  1.0000
  H   H3162     1.0  0.82085  0.22569  0.16681  1.0000
  H   H3163     1.0  0.86972  0.07678  0.04025  1.0000
  H   H3164     1.0  0.96121  0.15614  0.21545  1.0000
  H   H3165     1.0  0.87993  0.19600  0.01350  1.0000
  C   C1800     1.0  0.93491  0.13250  0.21505  1.0000
  H   H3166     1.0  0.74008  0.19565  0.18879  1.0000
  C   C1801     1.0  0.80550  0.06332  0.01795  1.0000
  H   H3167     1.0  0.81977  0.02915  0.22068  1.0000
  C   C1802     1.0  0.95485  0.14337  0.22715  1.0000
  H   H3168     1.0  0.69349  0.18622  0.32210  1.0000
  H   H3169     1.0  0.96346  0.13491  0.22327  1.0000
  H   H3170     1.0  0.85758  0.06592  0.15947  1.0000
  H   H3171     1.0  0.94052  0.14428  0.17607  1.0000
  H   H3172     1.0  0.92398  0.19498  0.99377  1.0000
  C   C1803     1.0  0.88989  0.06646  0.05628  1.0000
  H   H3173     1.0  0.89249  0.15558  0.02084  1.0000
  H   H3174     1.0  0.89358  0.18826  0.46000  1.0000
  C   C1804     1.0  0.86233  0.04770  0.02615  1.0000
  H   H3175     1.0  0.74363  0.14568  0.13112  1.0000
  C   C1805     1.0  0.83547  0.05685  0.01773  1.0000
  H   H3176     1.0  0.85923  0.10571  0.00618  1.0000
  H   H3177     1.0  0.67307  0.12532  0.35482  1.0000
  H   H3178     1.0  0.96102  0.18794  0.25231  1.0000
  C   C1806     1.0  0.94972  0.13115  0.30060  1.0000
  C   C1807     1.0  0.71731  0.14769  0.34850  1.0000
  H   H3179     1.0  0.86572  0.07133  0.98633  1.0000
  H   H3180     1.0  0.93479  0.19753  0.24023  1.0000
  H   H3181     1.0  0.72755  0.16414  0.38379  1.0000
  H   H3182     1.0  0.89203  0.19103  0.13861  1.0000
  H   H3183     1.0  0.70780  0.14653  0.33130  1.0000
  H   H3184     1.0  0.90450  0.20749  0.01300  1.0000
  H   H3185     1.0  0.71461  0.11744  0.13321  1.0000
  C   C1808     1.0  0.72982  0.21614  0.35291  1.0000
  C   C1809     1.0  0.93543  0.13035  0.18537  1.0000
  H   H3186     1.0  0.91903  0.16596  0.46134  1.0000
  C   C1810     1.0  0.94721  0.17696  0.24675  1.0000
  H   H3187     1.0  0.66972  0.10125  0.36156  1.0000
  H   H3188     1.0  0.90624  0.15556  0.06567  1.0000
  C   C1811     1.0  0.83577  0.02647  0.00008  1.0000
  H   H3189     1.0  0.80057  0.18361  0.09830  1.0000
  H   H3190     1.0  0.74379  0.21490  0.44198  1.0000
  C   C1812     1.0  0.72932  0.21457  0.43927  1.0000
  C   C1813     1.0  0.94812  0.12972  0.27026  1.0000
  H   H3191     1.0  0.65921  0.17045  0.32325  1.0000
  H   H3192     1.0  0.74045  0.18775  0.35288  1.0000
  C   C1814     1.0  0.72194  0.11209  0.14812  1.0000
  C   C1815     1.0  0.85541  0.18701  0.14183  1.0000
  H   H3193     1.0  0.72085  0.17314  0.18614  1.0000
  C   C1816     1.0  0.86228  0.05490  0.16664  1.0000
  H   H3194     1.0  0.79855  0.04227  0.19677  1.0000
  H   H3195     1.0  0.85806  0.18236  0.12212  1.0000
  C   C1817     1.0  0.87797  0.05488  0.14895  1.0000
  H   H3196     1.0  0.92880  0.14998  0.26112  1.0000
  H   H3197     1.0  0.86154  0.19615  0.18939  1.0000
  H   H3198     1.0  0.96435  0.13892  0.30782  1.0000
  H   H3199     1.0  0.85167  0.06887  0.46481  1.0000
  C   C1818     1.0  0.79324  0.22384  0.17691  1.0000
  C   C1819     1.0  0.97596  0.15844  0.26550  1.0000
  H   H3200     1.0  0.72930  0.10413  0.13815  1.0000
  H   H3201     1.0  0.74208  0.12196  0.17977  1.0000
  C   C1820     1.0  0.66700  0.17957  0.34006  1.0000
  H   H3202     1.0  0.67390  0.10986  0.32878  1.0000
  H   H3203     1.0  0.88144  0.05903  0.43645  1.0000
  C   C1821     1.0  0.77712  0.22628  0.16767  1.0000
  H   H3204     1.0  0.85545  0.17403  0.99358  1.0000
  H   H3205     1.0  0.81229  0.18981  0.98618  1.0000
  C   C1822     1.0  0.79541  0.06063  0.16711  1.0000
  H   H3206     1.0  0.68657  0.16615  0.34207  1.0000
  H   H3207     1.0  0.87029  0.03930  0.01898  1.0000
  H   H3208     1.0  0.82639  0.18017  0.12802  1.0000
  C   C1823     1.0  0.84173  0.20944  0.12274  1.0000
  H   H3209     1.0  0.79008  0.20042  0.10501  1.0000
  H   H3210     1.0  0.85073  0.22206  0.13429  1.0000
  H   H3211     1.0  0.73156  0.15013  0.34157  1.0000
  H   H3212     1.0  0.86309  0.19553  0.23967  1.0000
  H   H3213     1.0  0.76911  0.15776  0.10377  1.0000
  H   H3214     1.0  0.73271  0.16581  0.14521  1.0000
  N   N101      1.0  0.82221  0.17833  0.41138  1.0000
  C   C1824     1.0  0.82451  0.19360  0.39191  1.0000
  C   C1825     1.0  0.80719  0.16003  0.40152  1.0000
  C   C1826     1.0  0.81576  0.18393  0.43663  1.0000
  C   C1827     1.0  0.84040  0.17592  0.41731  1.0000
  C   C1828     1.0  0.85024  0.17135  0.39383  1.0000
  C   C1829     1.0  0.83813  0.21365  0.40016  1.0000
  C   C1830     1.0  0.81107  0.16940  0.45882  1.0000
  C   C1831     1.0  0.80488  0.15645  0.37138  1.0000
  C   C1832     1.0  0.79207  0.13620  0.36468  1.0000
  C   C1833     1.0  0.86876  0.17002  0.40261  1.0000
  H   H3215     1.0  0.89994  0.08082  0.06167  1.0000
  H   H3216     1.0  0.75959  0.17486  0.11244  1.0000
  H   H3217     1.0  0.81061  0.19435  0.38740  1.0000
  H   H3218     1.0  0.82933  0.19034  0.37289  1.0000
  H   H3219     1.0  0.80935  0.14793  0.41060  1.0000
  H   H3220     1.0  0.79306  0.15899  0.40771  1.0000
  H   H3221     1.0  0.80315  0.18726  0.43270  1.0000
  H   H3222     1.0  0.82661  0.19694  0.44527  1.0000
  H   H3223     1.0  0.85060  0.18856  0.42763  1.0000
  H   H3224     1.0  0.83806  0.16423  0.43106  1.0000
  H   H3225     1.0  0.85344  0.18232  0.37885  1.0000
  H   H3226     1.0  0.84146  0.15754  0.38497  1.0000
  H   H3227     1.0  0.83256  0.21912  0.41676  1.0000
  H   H3228     1.0  0.85221  0.21394  0.40576  1.0000
  H   H3229     1.0  0.82836  0.21086  0.11732  1.0000
  H   H3230     1.0  0.80101  0.15540  0.45208  1.0000
  H   H3231     1.0  0.79844  0.16567  0.36225  1.0000
  H   H3232     1.0  0.81839  0.15929  0.36193  1.0000
  H   H3233     1.0  0.79036  0.13422  0.34308  1.0000
  H   H3234     1.0  0.79831  0.12639  0.37234  1.0000
  H   H3235     1.0  0.77800  0.13280  0.37294  1.0000
  H   H3236     1.0  0.87516  0.16613  0.38550  1.0000
  H   H3237     1.0  0.87874  0.18368  0.41067  1.0000
  H   H3238     1.0  0.86641  0.15899  0.41743  1.0000
  H   H3239     1.0  0.76621  0.18346  0.18394  1.0000
  H   H3240     1.0  0.87208  0.22113  0.99154  1.0000
  H   H3241     1.0  0.92308  0.18177  0.03577  1.0000
  C   C1834     1.0  0.75118  0.14197  0.14747  1.0000
  S   S411      1.0  0.79572  0.21670  0.20942  1.0000
  C   C1835     1.0  0.83770  0.19179  0.13871  1.0000
  C   C1836     1.0  0.80110  0.15974  0.21726  1.0000
  H   H3242     1.0  0.81250  0.17119  0.22803  1.0000
  C   C1837     1.0  0.83385  0.13797  0.17269  1.0000
  H   H3243     1.0  0.83255  0.14096  0.19359  1.0000
  H   H3244     1.0  0.74753  0.16264  0.19164  1.0000
  H   H3245     1.0  0.79108  0.16626  0.14045  1.0000
  H   H3246     1.0  0.76583  0.14509  0.19752  1.0000
  C   C1838     1.0  0.77547  0.15264  0.18190  1.0000
  C   C1839     1.0  0.79233  0.16810  0.19630  1.0000
  H   H3247     1.0  0.75132  0.18879  0.14527  1.0000
  H   H3248     1.0  0.84672  0.22296  0.36066  1.0000
  C   C1840     1.0  0.79060  0.22130  0.42827  1.0000
  H   H3249     1.0  0.76946  0.00380  0.11831  1.0000
  C   C1841     1.0  0.72546  0.21734  0.32343  1.0000
  H   H3250     1.0  0.71124  0.10237  0.16090  1.0000
  C   C1842     1.0  0.77236  0.17161  0.11353  1.0000
  H   H3251     1.0  0.87216  0.15763  0.17365  1.0000
  H   H3252     1.0  0.85863  0.15832  0.21241  1.0000
  H   H3253     1.0  0.78241  0.18515  0.07677  1.0000
  H   H3254     1.0  0.88948  0.06897  0.14960  1.0000
  H   H3255     1.0  0.87874  0.17957  0.21083  1.0000
  H   H3256     1.0  0.84340  0.17337  0.24214  1.0000
  H   H3257     1.0  0.92035  0.18942  0.15930  1.0000
  N   N102      1.0  0.76513  0.15924  0.16126  1.0000
  H   H3258     1.0  0.78595  0.18597  0.14976  1.0000
  H   H3259     1.0  0.78776  0.17820  0.20646  1.0000
  H   H3260     1.0  0.83254  0.19406  0.15800  1.0000
  H   H3261     1.0  0.91830  0.13363  0.99469  1.0000
  C   C1843     1.0  0.86324  0.17372  0.21218  1.0000
  C   C1844     1.0  0.74267  0.17717  0.15777  1.0000
  C   C1845     1.0  0.87128  0.16729  0.15833  1.0000
  C   C1846     1.0  0.83687  0.15551  0.15617  1.0000
  H   H3262     1.0  0.78081  0.14243  0.17316  1.0000
  C   C1847     1.0  0.85866  0.18006  0.23866  1.0000
  C   C1848     1.0  0.90679  0.17732  0.16077  1.0000
  H   H3263     1.0  0.86963  0.15920  0.13962  1.0000
  H   H3264     1.0  0.90587  0.16689  0.14511  1.0000
  H   H3265     1.0  0.90653  0.17083  0.18013  1.0000
  H   H3266     1.0  0.86743  0.20043  0.14637  1.0000
  C   C1849     1.0  0.89056  0.18394  0.15773  1.0000
  H   H3267     1.0  0.89197  0.19444  0.17343  1.0000
  H   H3268     1.0  0.86619  0.17584  0.25462  1.0000
  H   H3269     1.0  0.75876  0.13393  0.13808  1.0000
  H   H3270     1.0  0.83951  0.17822  0.19412  1.0000
  C   C1850     1.0  0.75563  0.17049  0.17489  1.0000
  H   H3271     1.0  0.72770  0.13543  0.17451  1.0000
  N   N103      1.0  0.85455  0.17253  0.16201  1.0000
  C   C1851     1.0  0.85418  0.18062  0.18904  1.0000
  H   H3272     1.0  0.82423  0.15884  0.15900  1.0000
  H   H3273     1.0  0.83637  0.15121  0.13517  1.0000
  H   H3274     1.0  0.83892  0.01053  0.03401  1.0000
  H   H3275     1.0  0.70369  0.15997  0.37481  1.0000
  H   H3276     1.0  0.88174  0.06013  0.07376  1.0000
  H   H3277     1.0  0.83750  0.19897  0.98603  1.0000
  C   C1852     1.0  0.77601  0.23204  0.14172  1.0000
  S   S412      1.0  0.78514  0.23260  0.34047  1.0000
  H   H3278     1.0  0.85603  0.04129  0.04482  1.0000
  C   C1853     1.0  0.72652  0.19967  0.39407  1.0000
  H   H3279     1.0  0.71921  0.20144  0.44750  1.0000
  S   S413      1.0  0.79285  0.21621  0.46178  1.0000
  C   C1854     1.0  0.84612  0.03536  0.16653  1.0000
  H   H3280     1.0  0.82590  0.06236  0.21803  1.0000
  H   H3281     1.0  0.91883  0.17742  0.08280  1.0000
  H   H3282     1.0  0.72844  0.22663  0.45035  1.0000
  H   H3283     1.0  0.71038  0.21589  0.40835  1.0000
  C   C1855     1.0  0.91292  0.18180  0.98585  1.0000
  H   H3284     1.0  0.84346  0.03251  0.21627  1.0000
  C   C1856     1.0  0.80821  0.22731  0.15986  1.0000
  H   H3285     1.0  0.89374  0.16928  0.07850  1.0000
  C   C1857     1.0  0.84451  0.06019  0.24835  1.0000
  H   H3286     1.0  0.84228  0.07215  0.01429  1.0000
  H   H3287     1.0  0.75277  0.23885  0.31504  1.0000
  H   H3288     1.0  0.87264  0.05156  0.12836  1.0000
  H   H3289     1.0  0.91810  0.17462  0.24794  1.0000
  H   H3290     1.0  0.94087  0.13839  0.30811  1.0000
  C   C1858     1.0  0.87437  0.06857  0.44204  1.0000
  H   H3291     1.0  0.73429  0.23691  0.29163  1.0000
  C   C1859     1.0  0.79483  0.24282  0.39225  1.0000
  H   H3292     1.0  0.82396  0.02477  0.98617  1.0000
  C   C1860     1.0  0.81462  0.05018  0.00808  1.0000
  H   H3293     1.0  0.79070  0.05830  0.01060  1.0000
  C   C1861     1.0  0.89304  0.17012  0.02342  1.0000
  H   H3294     1.0  0.88596  0.07407  0.01734  1.0000
  N   N104      1.0  0.95580  0.14807  0.25604  1.0000
  C   C1862     1.0  0.79681  0.23960  0.41912  1.0000
  H   H3295     1.0  0.84946  0.06807  0.20831  1.0000
  H   H3296     1.0  0.74528  0.22016  0.35555  1.0000
  H   H3297     1.0  0.83322  0.05084  0.26070  1.0000
  H   H3298     1.0  0.95158  0.10387  0.30571  1.0000
  C   C1863     1.0  0.84049  0.22721  0.37770  1.0000
  H   H3299     1.0  0.79676  0.06257  0.14563  1.0000
  C   C1864     1.0  0.80710  0.23307  0.13396  1.0000
  C   C1865     1.0  0.93245  0.18509  0.25249  1.0000
  C   C1866     1.0  0.83237  0.03751  0.20951  1.0000
  N   N105      1.0  0.82854  0.03384  0.18039  1.0000
  C   C1867     1.0  0.82056  0.04688  0.16772  1.0000
  H   H3300     1.0  0.82967  0.06176  0.17163  1.0000
  H   H3301     1.0  0.71069  0.21584  0.32030  1.0000
  H   H3302     1.0  0.85722  0.05684  0.25098  1.0000
  C   C1868     1.0  0.85903  0.05922  0.46158  1.0000
  H   H3303     1.0  0.80480  0.07367  0.17745  1.0000
  H   H3304     1.0  0.92105  0.12212  0.17741  1.0000
  H   H3305     1.0  0.82035  0.04536  0.14607  1.0000
  H   H3306     1.0  0.85870  0.17616  0.47540  1.0000
  H   H3307     1.0  0.78070  0.05795  0.17212  1.0000
  C   C1869     1.0  0.91120  0.17351  0.45121  1.0000
  N   N106      1.0  0.84712  0.04689  0.00635  1.0000
  C   C1870     1.0  0.82091  0.99811  0.18442  1.0000
  H   H3308     1.0  0.84787  0.13298  0.47377  1.0000
  H   H3309     1.0  0.80637  0.03607  0.01557  1.0000
  H   H3310     1.0  0.88501  0.08176  0.45050  1.0000
  H   H3311     1.0  0.79008  0.03133  0.16526  1.0000
  H   H3312     1.0  0.84998  0.24153  0.38414  1.0000
  H   H3313     1.0  0.84450  0.02014  0.98962  1.0000
  C   C1871     1.0  0.85816  0.16119  0.98949  1.0000
  C   C1872     1.0  0.65237  0.12399  0.27236  1.0000
  H   H3314     1.0  0.81303  0.07775  0.01086  1.0000
  H   H3315     1.0  0.78888  0.17639  0.47595  1.0000
  H   H3316     1.0  0.72656  0.22751  0.36234  1.0000
  C   C1873     1.0  0.81173  0.99568  0.01628  1.0000
  H   H3317     1.0  0.83142  0.99700  0.17073  1.0000
  H   H3318     1.0  0.81305  0.04931  0.98651  1.0000
  H   H3319     1.0  0.94640  0.17415  0.22538  1.0000
  H   H3320     1.0  0.97646  0.16638  0.28406  1.0000
  C   C1874     1.0  0.85671  0.05642  0.98200  1.0000
  H   H3321     1.0  0.79973  0.99840  0.00747  1.0000
  H   H3322     1.0  0.91738  0.17030  0.99225  1.0000
  H   H3323     1.0  0.73496  0.22965  0.40371  1.0000
  H   H3324     1.0  0.81008  0.01144  0.15498  1.0000
  H   H3325     1.0  0.89664  0.23468  0.99880  1.0000
  H   H3326     1.0  0.76352  0.23400  0.13486  1.0000
  H   H3327     1.0  0.82717  0.00067  0.20455  1.0000
  H   H3328     1.0  0.83402  0.02511  0.48050  1.0000
  H   H3329     1.0  0.82429  0.05015  0.47914  1.0000
  Fe  Fe207     1.0  0.73906  0.18090  0.77709  1.0000
  S   S414      1.0  0.75507  0.21223  0.77295  1.0000
  S   S415      1.0  0.70692  0.17293  0.77645  1.0000
  Fe  Fe208     1.0  0.77616  0.17509  0.78511  1.0000
  S   S416      1.0  0.79329  0.20549  0.78139  1.0000
  S   S417      1.0  0.79171  0.15583  0.79320  1.0000
  Fe  Fe209     1.0  0.77257  0.20984  0.80778  1.0000
  H   H3330     1.0  0.86228  0.14079  0.78925  1.0000
  Fe  Fe210     1.0  0.77436  0.20464  0.74675  1.0000
  H   H3331     1.0  0.88682  0.14790  0.54518  1.0000
  S   S418      1.0  0.75598  0.17926  0.81314  1.0000
  S   S419      1.0  0.75779  0.17353  0.74924  1.0000
  Fe  Fe211     1.0  0.90282  0.13768  0.82212  1.0000
  S   S420      1.0  0.91741  0.16908  0.82020  1.0000
  S   S421      1.0  0.89739  0.11666  0.78765  1.0000
  Fe  Fe212     1.0  0.89460  0.13935  0.88169  1.0000
  S   S422      1.0  0.90813  0.17076  0.88262  1.0000
  S   S423      1.0  0.87694  0.12269  0.91544  1.0000
  Fe  Fe213     1.0  0.89305  0.16932  0.84383  1.0000
  S   S424      1.0  0.87677  0.18800  0.83543  1.0000
  Fe  Fe214     1.0  0.93136  0.16754  0.85926  1.0000
  S   S425      1.0  0.96214  0.18019  0.87533  1.0000
  S   S426      1.0  0.87818  0.13822  0.84415  1.0000
  S   S427      1.0  0.91808  0.13580  0.85979  1.0000
  S   S428      1.0  0.80470  0.21537  0.53464  1.0000
  S   S429      1.0  0.85369  0.21562  0.55522  1.0000
  Fe  Fe215     1.0  0.84197  0.07346  0.59646  1.0000
  S   S430      1.0  0.87316  0.08824  0.60534  1.0000
  S   S431      1.0  0.83164  0.04121  0.59085  1.0000
  Fe  Fe216     1.0  0.83859  0.11179  0.58701  1.0000
  S   S432      1.0  0.86913  0.12781  0.59471  1.0000
  S   S433      1.0  0.82024  0.12743  0.57421  1.0000
  Fe  Fe217     1.0  0.87331  0.10565  0.56999  1.0000
  S   S434      1.0  0.89531  0.11286  0.53824  1.0000
  Fe  Fe218     1.0  0.86568  0.10894  0.62934  1.0000
  S   S435      1.0  0.87799  0.12613  0.66712  1.0000
  S   S436      1.0  0.84279  0.09047  0.56038  1.0000
  S   S437      1.0  0.83447  0.09343  0.62232  1.0000
  C   C1875     1.0  0.84372  0.19125  0.56163  1.0000
  C   C1876     1.0  0.82613  0.17966  0.55117  1.0000
  C   C1877     1.0  0.81904  0.16023  0.55548  1.0000
  C   C1878     1.0  0.82947  0.15210  0.57019  1.0000
  C   C1879     1.0  0.84702  0.16370  0.58085  1.0000
  C   C1880     1.0  0.85407  0.18316  0.57659  1.0000
  H   H3332     1.0  0.81801  0.18560  0.53955  1.0000
  H   H3333     1.0  0.80543  0.15143  0.54725  1.0000
  H   H3334     1.0  0.85512  0.15775  0.59253  1.0000
  H   H3335     1.0  0.86767  0.19197  0.58488  1.0000
  H   H3336     1.0  0.84536  0.13408  0.64808  1.0000
  C   C1881     1.0  0.89195  0.11946  0.75418  1.0000
  C   C1882     1.0  0.88538  0.10371  0.73710  1.0000
  C   C1883     1.0  0.88092  0.10536  0.71047  1.0000
  C   C1884     1.0  0.88311  0.12287  0.70053  1.0000
  C   C1885     1.0  0.88952  0.13857  0.71767  1.0000
  C   C1886     1.0  0.89391  0.13689  0.74426  1.0000
  H   H3337     1.0  0.88384  0.09015  0.74453  1.0000
  H   H3338     1.0  0.87608  0.09315  0.69760  1.0000
  H   H3339     1.0  0.89134  0.15220  0.71025  1.0000
  H   H3340     1.0  0.89919  0.14913  0.75705  1.0000
  C   C1887     1.0  0.88227  0.12166  0.94933  1.0000
  C   C1888     1.0  0.82379  0.20028  0.94858  1.0000
  H   H3341     1.0  0.83026  0.20711  0.76612  1.0000
  C   C1889     1.0  0.89130  0.11524  0.50426  1.0000
  H   H3342     1.0  0.80801  0.18495  0.70005  1.0000
  C   C1890     1.0  0.90062  0.12916  0.95981  1.0000
  H   H3343     1.0  0.85320  0.10708  0.95839  1.0000
  H   H3344     1.0  0.86011  0.17346  0.72639  1.0000
  H   H3345     1.0  0.69639  0.21320  0.90318  1.0000
  H   H3346     1.0  0.91220  0.13574  0.94702  1.0000
  H   H3347     1.0  0.86122  0.10283  0.50518  1.0000
  H   H3348     1.0  0.82217  0.17521  0.75301  1.0000
  C   C1891     1.0  0.88609  0.17376  0.52787  1.0000
  H   H3349     1.0  0.81697  0.11272  0.48656  1.0000
  H   H3350     1.0  0.74620  0.22514  0.95178  1.0000
  C   C1892     1.0  0.80613  0.17830  0.71944  1.0000
  C   C1893     1.0  0.87778  0.22295  0.90261  1.0000
  H   H3351     1.0  0.83741  0.05160  0.53699  1.0000
  H   H3352     1.0  0.82927  0.14572  0.97660  1.0000
  H   H3353     1.0  0.66478  0.13151  0.71436  1.0000
  C   C1894     1.0  0.81505  0.16491  0.80629  1.0000
  C   C1895     1.0  0.82494  0.18412  0.81080  1.0000
  C   C1896     1.0  0.84381  0.19099  0.81963  1.0000
  C   C1897     1.0  0.85289  0.17869  0.82480  1.0000
  C   C1898     1.0  0.84278  0.15944  0.82136  1.0000
  C   C1899     1.0  0.82406  0.15259  0.81179  1.0000
  H   H3354     1.0  0.81810  0.19374  0.80765  1.0000
  H   H3355     1.0  0.85140  0.20591  0.82246  1.0000
  H   H3356     1.0  0.84935  0.14979  0.82618  1.0000
  H   H3357     1.0  0.81649  0.13768  0.80886  1.0000
  C   C1900     1.0  0.90882  0.17125  0.56298  1.0000
  H   H3358     1.0  0.89216  0.20567  0.88763  1.0000
  C   C1901     1.0  0.81392  0.01998  0.60188  1.0000
  C   C1902     1.0  0.80013  0.01981  0.61932  1.0000
  H   H3359     1.0  0.84459  0.15758  0.95072  1.0000
  C   C1903     1.0  0.82454  0.19075  0.97442  1.0000
  H   H3360     1.0  0.79991  0.03293  0.62653  1.0000
  H   H3361     1.0  0.87216  0.07143  0.54841  1.0000
  C   C1904     1.0  0.84107  0.20267  0.93191  1.0000
  C   C1905     1.0  0.66797  0.11872  0.77150  1.0000
  C   C1906     1.0  0.68526  0.13433  0.77276  1.0000
  C   C1907     1.0  0.68556  0.15254  0.77446  1.0000
  C   C1908     1.0  0.66826  0.15481  0.77468  1.0000
  H   H3362     1.0  0.66324  0.15418  0.71681  1.0000
  H   H3363     1.0  0.66800  0.10475  0.77034  1.0000
  H   H3364     1.0  0.69834  0.13225  0.77255  1.0000
  H   H3365     1.0  0.66824  0.16878  0.77598  1.0000
  H   H3366     1.0  0.82489  0.13742  0.63565  1.0000
  H   H3367     1.0  0.84144  0.12068  0.79670  1.0000
  C   C1909     1.0  0.85846  0.14739  0.51176  1.0000
  H   H3368     1.0  0.83084  0.23196  0.91960  1.0000
  H   H3369     1.0  0.84904  0.06994  0.51567  1.0000
  H   H3370     1.0  0.85187  0.14921  0.53018  1.0000
  H   H3371     1.0  0.86473  0.13697  0.51615  1.0000
  H   H3372     1.0  0.80963  0.06168  0.52905  1.0000
  H   H3373     1.0  0.86035  0.11767  0.77997  1.0000
  H   H3374     1.0  0.70216  0.22583  0.87287  1.0000
  H   H3375     1.0  0.71290  0.18704  0.90941  1.0000
  H   H3376     1.0  0.87647  0.20370  0.52161  1.0000
  H   H3377     1.0  0.69035  0.14400  0.68279  1.0000
  H   H3378     1.0  0.85729  0.19601  0.89007  1.0000
  N   N107      1.0  0.71733  0.19744  0.86977  1.0000
  C   C1910     1.0  0.72999  0.21512  0.85685  1.0000
  C   C1911     1.0  0.86378  0.21128  0.48816  1.0000
  C   C1912     1.0  0.71810  0.18110  0.85410  1.0000
  C   C1913     1.0  0.69718  0.19570  0.86970  1.0000
  H   H3379     1.0  0.81212  0.18958  0.48961  1.0000
  C   C1914     1.0  0.72456  0.21791  0.82821  1.0000
  C   C1915     1.0  0.70687  0.16130  0.86471  1.0000
  H   H3380     1.0  0.75494  0.22211  0.63288  1.0000
  C   C1916     1.0  0.93474  0.18716  0.94773  1.0000
  H   H3381     1.0  0.90954  0.18787  0.48637  1.0000
  Fe  Fe219     1.0  0.80761  0.23309  0.49885  1.0000
  H   H3382     1.0  0.74461  0.21559  0.85690  1.0000
  H   H3383     1.0  0.82347  0.21412  0.95360  1.0000
  H   H3384     1.0  0.87993  0.19986  0.96255  1.0000
  C   C1917     1.0  0.71011  0.14623  0.84827  1.0000
  H   H3385     1.0  0.73295  0.18257  0.85257  1.0000
  H   H3386     1.0  0.71263  0.18093  0.83373  1.0000
  H   H3387     1.0  0.69095  0.19296  0.84944  1.0000
  H   H3388     1.0  0.85059  0.17567  0.50782  1.0000
  H   H3389     1.0  0.72514  0.14816  0.84932  1.0000
  C   C1918     1.0  0.88378  0.16218  0.48161  1.0000
  H   H3390     1.0  0.72669  0.20757  0.81482  1.0000
  H   H3391     1.0  0.84562  0.13641  0.96412  1.0000
  H   H3392     1.0  0.85528  0.23899  0.92441  1.0000
  H   H3393     1.0  0.82407  0.01742  0.53074  1.0000
  H   H3394     1.0  0.83852  0.15177  0.66264  1.0000
  C   C1919     1.0  0.91435  0.18168  0.95558  1.0000
  H   H3395     1.0  0.82514  0.20752  0.86958  1.0000
  C   C1920     1.0  0.82390  0.20160  0.88953  1.0000
  H   H3396     1.0  0.73506  0.18975  0.89723  1.0000
  H   H3397     1.0  0.85349  0.21123  0.94428  1.0000
  C   C1921     1.0  0.82244  0.04947  0.50052  1.0000
  C   C1922     1.0  0.81651  0.99367  0.50427  1.0000
  C   C1923     1.0  0.79261  0.15795  0.71553  1.0000
  H   H3398     1.0  0.77908  0.15753  0.70698  1.0000
  H   H3399     1.0  0.79845  0.15043  0.70191  1.0000
  H   H3400     1.0  0.78984  0.15076  0.73457  1.0000
  H   H3401     1.0  0.82896  0.16875  0.72296  1.0000
  N   N108      1.0  0.82137  0.10909  0.71856  1.0000
  C   C1924     1.0  0.83463  0.10985  0.74108  1.0000
  C   C1925     1.0  0.81394  0.08952  0.70682  1.0000
  C   C1926     1.0  0.83185  0.12344  0.69883  1.0000
  C   C1927     1.0  0.80496  0.11347  0.72754  1.0000
  C   C1928     1.0  0.79526  0.10327  0.75239  1.0000
  C   C1929     1.0  0.84342  0.12891  0.75592  1.0000
  C   C1930     1.0  0.82099  0.12307  0.67273  1.0000
  C   C1931     1.0  0.82865  0.08313  0.69408  1.0000
  C   C1932     1.0  0.81919  0.06415  0.68002  1.0000
  C   C1933     1.0  0.77739  0.10671  0.75743  1.0000
  C   C1934     1.0  0.85238  0.12684  0.78202  1.0000
  C   C1935     1.0  0.83322  0.13750  0.65374  1.0000
  H   H3402     1.0  0.84677  0.10687  0.73411  1.0000
  H   H3403     1.0  0.82774  0.09860  0.75525  1.0000
  H   H3404     1.0  0.80726  0.07907  0.72204  1.0000
  H   H3405     1.0  0.80246  0.08769  0.69211  1.0000
  H   H3406     1.0  0.84534  0.12223  0.69431  1.0000
  H   H3407     1.0  0.83606  0.13784  0.70728  1.0000
  H   H3408     1.0  0.80917  0.12877  0.73135  1.0000
  H   H3409     1.0  0.79397  0.11002  0.71164  1.0000
  H   H3410     1.0  0.80469  0.10848  0.76993  1.0000
  H   H3411     1.0  0.79133  0.08793  0.75053  1.0000
  H   H3412     1.0  0.85458  0.13882  0.74395  1.0000
  H   H3413     1.0  0.83305  0.13520  0.76004  1.0000
  H   H3414     1.0  0.80843  0.12633  0.67633  1.0000
  H   H3415     1.0  0.81638  0.10921  0.66271  1.0000
  H   H3416     1.0  0.83696  0.09323  0.67955  1.0000
  H   H3417     1.0  0.83851  0.08157  0.70917  1.0000
  H   H3418     1.0  0.83002  0.06006  0.67086  1.0000
  H   H3419     1.0  0.81143  0.05319  0.69404  1.0000
  H   H3420     1.0  0.80932  0.06491  0.66429  1.0000
  H   H3421     1.0  0.76699  0.10100  0.74100  1.0000
  H   H3422     1.0  0.77103  0.09970  0.77569  1.0000
  H   H3423     1.0  0.78061  0.12191  0.75992  1.0000
  C   C1936     1.0  0.82505  0.17967  0.73237  1.0000
  H   H3424     1.0  0.79920  0.18524  0.73222  1.0000
  C   C1937     1.0  0.77054  0.21937  0.66724  1.0000
  H   H3425     1.0  0.86212  0.05536  0.92765  1.0000
  H   H3426     1.0  0.90629  0.16739  0.94740  1.0000
  H   H3427     1.0  0.68863  0.16674  0.68485  1.0000
  C   C1938     1.0  0.90670  0.12337  0.48804  1.0000
  H   H3428     1.0  0.81045  0.19169  0.93814  1.0000
  C   C1939     1.0  0.72449  0.19637  0.89737  1.0000
  C   C1940     1.0  0.78584  0.22677  0.87531  1.0000
  C   C1941     1.0  0.78805  0.22097  0.67761  1.0000
  C   C1942     1.0  0.78807  0.22122  0.93002  1.0000
  H   H3429     1.0  0.85064  0.16951  0.75865  1.0000
  C   C1943     1.0  0.69351  0.21236  0.88176  1.0000
  H   H3430     1.0  0.77134  0.19228  0.92047  1.0000
  H   H3431     1.0  0.85814  0.20195  0.76734  1.0000
  H   H3432     1.0  0.83305  0.23826  0.87270  1.0000
  H   H3433     1.0  0.90605  0.15966  0.52414  1.0000
  C   C1944     1.0  0.89668  0.16176  0.53888  1.0000
  C   C1945     1.0  0.86351  0.17875  0.49629  1.0000
  S   S438      1.0  0.79224  0.21887  0.71170  1.0000
  C   C1946     1.0  0.84354  0.23161  0.91018  1.0000
  C   C1947     1.0  0.83468  0.21229  0.74617  1.0000
  H   H3434     1.0  0.75874  0.21596  0.67997  1.0000
  H   H3435     1.0  0.88182  0.16861  0.75961  1.0000
  H   H3436     1.0  0.82219  0.21333  0.73625  1.0000
  H   H3437     1.0  0.83557  0.17840  0.68275  1.0000
  C   C1948     1.0  0.84243  0.13773  0.49111  1.0000
  N   N109      1.0  0.84093  0.19865  0.73176  1.0000
  H   H3438     1.0  0.83921  0.20278  0.64979  1.0000
  H   H3439     1.0  0.86258  0.23325  0.75859  1.0000
  H   H3440     1.0  0.88256  0.18883  0.77788  1.0000
  H   H3441     1.0  0.89187  0.19139  0.74533  1.0000
  C   C1949     1.0  0.85827  0.19839  0.74615  1.0000
  C   C1950     1.0  0.86129  0.17967  0.74625  1.0000
  H   H3442     1.0  0.86056  0.18845  0.69021  1.0000
  H   H3443     1.0  0.81686  0.22691  0.66841  1.0000
  C   C1951     1.0  0.84331  0.02513  0.49739  1.0000
  H   H3444     1.0  0.87120  0.20946  0.73877  1.0000
  C   C1952     1.0  0.77825  0.20615  0.91273  1.0000
  C   C1953     1.0  0.88058  0.18238  0.75796  1.0000
  C   C1954     1.0  0.84816  0.19158  0.68437  1.0000
  H   H3445     1.0  0.86425  0.21288  0.65698  1.0000
  C   C1955     1.0  0.84537  0.20547  0.70418  1.0000
  H   H3446     1.0  0.69574  0.15716  0.71324  1.0000
  H   H3447     1.0  0.77598  0.00274  0.64090  1.0000
  H   H3448     1.0  0.79998  0.16539  0.49793  1.0000
  H   H3449     1.0  0.82439  0.00249  0.57941  1.0000
  C   C1956     1.0  0.81265  0.06259  0.50784  1.0000
  C   C1957     1.0  0.85148  0.19978  0.65696  1.0000
  H   H3450     1.0  0.81270  0.03504  0.50490  1.0000
  H   H3451     1.0  0.85840  0.21836  0.70414  1.0000
  Fe  Fe220     1.0  0.80195  0.23875  0.55823  1.0000
  H   H3452     1.0  0.70162  0.13216  0.85574  1.0000
  H   H3453     1.0  0.67056  0.22170  0.88682  1.0000
  H   H3454     1.0  0.83425  0.20992  0.69593  1.0000
  H   H3455     1.0  0.70974  0.21649  0.82625  1.0000
  C   C1958     1.0  0.65068  0.12098  0.77184  1.0000
  H   H3456     1.0  0.82455  0.00938  0.65407  1.0000
  H   H3457     1.0  0.85246  0.23927  0.72963  1.0000
  C   C1959     1.0  0.86551  0.04315  0.53162  1.0000
  H   H3458     1.0  0.83320  0.04334  0.95323  1.0000
  H   H3459     1.0  0.89698  0.18772  0.52405  1.0000
  Fe  Fe221     1.0  0.83553  0.23106  0.54077  1.0000
  H   H3460     1.0  0.88858  0.20511  0.49192  1.0000
  H   H3461     1.0  0.91958  0.18506  0.55795  1.0000
  C   C1960     1.0  0.84929  0.23269  0.74907  1.0000
  C   C1961     1.0  0.86744  0.11297  0.96629  1.0000
  H   H3462     1.0  0.78793  0.17241  0.88354  1.0000
  H   H3463     1.0  0.87783  0.17617  0.54402  1.0000
  C   C1962     1.0  0.77726  0.20885  0.88553  1.0000
  H   H3464     1.0  0.76964  0.19713  0.87255  1.0000
  H   H3465     1.0  0.73097  0.22780  0.86808  1.0000
  H   H3466     1.0  0.89252  0.22441  0.86632  1.0000
  H   H3467     1.0  0.87126  0.22640  0.49311  1.0000
  H   H3468     1.0  0.65731  0.13098  0.66556  1.0000
  C   C1963     1.0  0.84357  0.14953  0.96891  1.0000
  C   C1964     1.0  0.80324  0.22560  0.66069  1.0000
  H   H3469     1.0  0.84615  0.06637  0.91834  1.0000
  H   H3470     1.0  0.87717  0.05204  0.58428  1.0000
  H   H3471     1.0  0.74545  0.20219  0.94359  1.0000
  H   H3472     1.0  0.89842  0.07181  0.57780  1.0000
  H   H3473     1.0  0.66354  0.19661  0.88658  1.0000
  N   N110      1.0  0.87333  0.16586  0.50414  1.0000
  C   C1965     1.0  0.87319  0.10921  0.49307  1.0000
  H   H3474     1.0  0.90877  0.19133  0.94606  1.0000
  H   H3475     1.0  0.90723  0.22952  0.89558  1.0000
  C   C1966     1.0  0.67296  0.20977  0.87757  1.0000
  C   C1967     1.0  0.82665  0.01177  0.67557  1.0000
  C   C1968     1.0  0.68640  0.15359  0.69542  1.0000
  S   S439      1.0  0.78801  0.21712  0.96425  1.0000
  H   H3476     1.0  0.89998  0.17318  0.57870  1.0000
  C   C1969     1.0  0.88815  0.05831  0.56965  1.0000
  H   H3477     1.0  0.88956  0.15152  0.48695  1.0000
  H   H3478     1.0  0.81191  0.20404  0.89807  1.0000
  H   H3479     1.0  0.81948  0.12491  0.51745  1.0000
  C   C1970     1.0  0.82717  0.12055  0.50234  1.0000
  H   H3480     1.0  0.79602  0.15654  0.86633  1.0000
  H   H3481     1.0  0.70581  0.14679  0.82748  1.0000
  H   H3482     1.0  0.88016  0.23804  0.90239  1.0000
  H   H3483     1.0  0.87950  0.21905  0.92297  1.0000
  C   C1971     1.0  0.78366  0.22767  0.62363  1.0000
  C   C1972     1.0  0.87940  0.06182  0.54412  1.0000
  C   C1973     1.0  0.85543  0.06496  0.93443  1.0000
  H   H3484     1.0  0.84217  0.18879  0.92969  1.0000
  H   H3485     1.0  0.87876  0.17134  0.95972  1.0000
  C   C1974     1.0  0.85803  0.21069  0.89101  1.0000
  C   C1975     1.0  0.89331  0.22044  0.88702  1.0000
  C   C1976     1.0  0.81203  0.99582  0.69007  1.0000
  C   C1977     1.0  0.89099  0.20863  0.97663  1.0000
  H   H3486     1.0  0.71106  0.15997  0.88527  1.0000
  H   H3487     1.0  0.90472  0.21400  0.96705  1.0000
  H   H3488     1.0  0.88028  0.15250  0.97736  1.0000
  C   C1978     1.0  0.84132  0.05450  0.51620  1.0000
  C   C1979     1.0  0.76843  0.22290  0.64049  1.0000
  H   H3489     1.0  0.91606  0.16226  0.57057  1.0000
  H   H3490     1.0  0.89564  0.04880  0.56616  1.0000
  C   C1980     1.0  0.79915  0.17152  0.87105  1.0000
  H   H3491     1.0  0.82870  0.17739  0.87333  1.0000
  H   H3492     1.0  0.79903  0.17879  0.85244  1.0000
  H   H3493     1.0  0.81713  0.17289  0.90414  1.0000
  C   C1981     1.0  0.81825  0.18021  0.88535  1.0000
  H   H3494     1.0  0.69159  0.15818  0.86369  1.0000
  N   N111      1.0  0.85402  0.04473  0.50801  1.0000
  H   H3495     1.0  0.85737  0.21449  0.87017  1.0000
  C   C1982     1.0  0.66600  0.14423  0.70340  1.0000
  H   H3496     1.0  0.82153  0.07726  0.50314  1.0000
  C   C1983     1.0  0.73452  0.21511  0.91288  1.0000
  C   C1984     1.0  0.87451  0.20016  0.50037  1.0000
  H   H3497     1.0  0.74850  0.22291  0.90459  1.0000
  N   N112      1.0  0.84164  0.21163  0.90564  1.0000
  H   H3498     1.0  0.66933  0.20933  0.85633  1.0000
  S   S440      1.0  0.78398  0.23127  0.84147  1.0000
  C   C1985     1.0  0.81383  0.00263  0.59282  1.0000
  H   H3499     1.0  0.93557  0.18682  0.92609  1.0000
  H   H3500     1.0  0.84944  0.20669  0.49601  1.0000
  H   H3501     1.0  0.85319  0.01918  0.48929  1.0000
  H   H3502     1.0  0.72410  0.20533  0.95153  1.0000
  H   H3503     1.0  0.72651  0.22429  0.91211  1.0000
  H   H3504     1.0  0.86651  0.07902  0.93865  1.0000
  H   H3505     1.0  0.85613  0.03573  0.54761  1.0000
  H   H3506     1.0  0.85345  0.18954  0.64312  1.0000
  H   H3507     1.0  0.84048  0.00612  0.53013  1.0000
  H   H3508     1.0  0.87377  0.03454  0.52663  1.0000
  H   H3509     1.0  0.83695  0.06704  0.96359  1.0000
  C   C1986     1.0  0.73770  0.21165  0.94167  1.0000
  H   H3510     1.0  0.94348  0.20156  0.95487  1.0000
  H   H3511     1.0  0.97714  0.21157  0.83869  1.0000
  C   C1987     1.0  0.78655  0.00260  0.62746  1.0000
  H   H3512     1.0  0.94062  0.17716  0.95577  1.0000
  C   C1988     1.0  0.65233  0.13923  0.67913  1.0000
  H   H3513     1.0  0.89118  0.06892  0.53102  1.0000
  H   H3514     1.0  0.68850  0.18321  0.88081  1.0000
  H   H3515     1.0  0.84104  0.01294  0.68127  1.0000
  H   H3516     1.0  0.82534  0.02523  0.68055  1.0000
  H   H3517     1.0  0.83332  0.11108  0.51129  1.0000
  H   H3518     1.0  0.75181  0.23951  0.81991  1.0000
  C   C1989     1.0  0.84393  0.05729  0.95868  1.0000
  H   H3519     1.0  0.81527  0.99830  0.71136  1.0000
  C   C1990     1.0  0.65097  0.13919  0.77331  1.0000
  H   H3520     1.0  0.86626  0.04969  0.97499  1.0000
  H   H3521     1.0  0.79812  0.99652  0.68574  1.0000
  H   H3522     1.0  0.65450  0.15249  0.66874  1.0000
  C   C1991     1.0  0.83129  0.01097  0.51763  1.0000
  C   C1992     1.0  0.79572  0.24180  0.89257  1.0000
  H   H3523     1.0  0.92079  0.12792  0.49643  1.0000
  C   C1993     1.0  0.73674  0.23737  0.81870  1.0000
  H   H3524     1.0  0.83876  0.23892  0.78576  1.0000
  C   C1994     1.0  0.80251  0.17562  0.48193  1.0000
  H   H3525     1.0  0.83557  0.14718  0.48446  1.0000
  H   H3526     1.0  0.88707  0.23419  0.96623  1.0000
  H   H3527     1.0  0.79914  0.05854  0.49659  1.0000
  C   C1995     1.0  0.80102  0.22864  0.63383  1.0000
  H   H3528     1.0  0.82396  0.17637  0.97077  1.0000
  H   H3529     1.0  0.80635  0.99763  0.49250  1.0000
  S   S441      1.0  0.78071  0.23374  0.59065  1.0000
  H   H3530     1.0  0.87605  0.07029  0.49553  1.0000
  H   H3531     1.0  0.81281  0.23202  0.62112  1.0000
  H   H3532     1.0  0.64858  0.10253  0.67910  1.0000
  C   C1996     1.0  0.79696  0.23906  0.91972  1.0000
  C   C1997     1.0  0.86758  0.05593  0.48784  1.0000
  H   H3533     1.0  0.73294  0.23878  0.79796  1.0000
  C   C1998     1.0  0.87836  0.16597  0.97983  1.0000
  H   H3534     1.0  0.87777  0.04929  0.48353  1.0000
  Fe  Fe222     1.0  0.95785  0.45316  0.99940  1.0000
  S   S442      1.0  0.94213  0.47196  0.00184  1.0000
  H   H3535     1.0  0.84264  0.32409  0.41579  1.0000
  Fe  Fe223     1.0  0.92147  0.41771  0.00722  1.0000
  S   S443      1.0  0.90385  0.43544  0.00969  1.0000
  S   S444      1.0  0.91305  0.38630  0.01728  1.0000
  H   H3536     1.0  0.93110  0.44099  0.36292  1.0000
  S   S445      1.0  0.90715  0.46235  0.44030  1.0000
  Fe  Fe224     1.0  0.92738  0.45501  0.03598  1.0000
  S   S446      1.0  0.92832  0.47371  0.07174  1.0000
  C   C1999     1.0  0.86318  0.33411  0.44812  1.0000
  S   S447      1.0  0.94429  0.43704  0.03477  1.0000
  C   C2000     1.0  0.92661  0.48440  0.12276  1.0000
  H   H3537     1.0  0.84099  0.30104  0.47197  1.0000
  Fe  Fe225     1.0  0.91821  0.48005  0.22648  1.0000
  S   S448      1.0  0.90739  0.45920  0.19216  1.0000
  S   S449      1.0  0.94263  0.47927  0.25059  1.0000
  S   S450      1.0  0.90116  0.48003  0.26209  1.0000
  Fe  Fe226     1.0  0.83742  0.27132  0.02126  1.0000
  S   S451      1.0  0.80566  0.25905  0.02078  1.0000
  S   S452      1.0  0.84880  0.30271  0.01011  1.0000
  H   H3538     1.0  0.87296  0.25517  0.45372  1.0000
  Fe  Fe227     1.0  0.80812  0.24430  0.05779  1.0000
  H   H3539     1.0  0.78945  0.28192  0.05672  1.0000
  S   S453      1.0  0.83870  0.24722  0.99664  1.0000
  H   H3540     1.0  0.82185  0.31721  0.44828  1.0000
  H   H3541     1.0  0.93080  0.41936  0.22510  1.0000
  S   S454      1.0  0.83965  0.25767  0.05956  1.0000
  C   C2001     1.0  0.85939  0.27371  0.44087  1.0000
  C   C2002     1.0  0.82307  0.29649  0.08576  1.0000
  H   H3542     1.0  0.76768  0.28167  0.02120  1.0000
  H   H3543     1.0  0.82109  0.33168  0.11059  1.0000
  H   H3544     1.0  0.82509  0.29284  0.40068  1.0000
  H   H3545     1.0  0.86497  0.32379  0.40972  1.0000
  N   N113      1.0  0.84694  0.29985  0.43091  1.0000
  C   C2003     1.0  0.95840  0.45738  0.18777  1.0000
  H   H3546     1.0  0.96513  0.45119  0.37833  1.0000
  H   H3547     1.0  0.85112  0.33795  0.98867  1.0000
  C   C2004     1.0  0.89500  0.36315  0.01453  1.0000
  C   C2005     1.0  0.89787  0.34821  0.02703  1.0000
  C   C2006     1.0  0.88405  0.32974  0.02589  1.0000
  C   C2007     1.0  0.86705  0.32578  0.01199  1.0000
  C   C2008     1.0  0.86415  0.34070  0.99949  1.0000
  C   C2009     1.0  0.87793  0.35921  0.00078  1.0000
  C   C2010     1.0  0.97573  0.44391  0.41375  1.0000
  H   H3548     1.0  0.88663  0.31856  0.03566  1.0000
  H   H3549     1.0  0.83071  0.35223  0.06887  1.0000
  C   C2011     1.0  0.97214  0.45843  0.39676  1.0000
  C   C2012     1.0  0.92257  0.46913  0.10516  1.0000
  H   H3550     1.0  0.87568  0.36396  0.45686  1.0000
  C   C2013     1.0  0.92230  0.48162  0.14946  1.0000
  C   C2014     1.0  0.91363  0.46346  0.15885  1.0000
  C   C2015     1.0  0.90952  0.44819  0.14127  1.0000
  C   C2016     1.0  0.91408  0.45097  0.11462  1.0000
  C   C2017     1.0  0.83686  0.28871  0.40690  1.0000
  C   C2018     1.0  0.85568  0.46751  0.30257  1.0000
  H   H3551     1.0  0.90272  0.43408  0.14827  1.0000
  H   H3552     1.0  0.91080  0.43909  0.10133  1.0000
  C   C2019     1.0  0.91425  0.46334  0.40734  1.0000
  C   C2020     1.0  0.92149  0.45070  0.39725  1.0000
  C   C2021     1.0  0.92596  0.45117  0.37064  1.0000
  C   C2022     1.0  0.92348  0.46438  0.35383  1.0000
  C   C2023     1.0  0.91670  0.47736  0.36401  1.0000
  C   C2024     1.0  0.91201  0.47677  0.39062  1.0000
  H   H3553     1.0  0.92319  0.44022  0.40977  1.0000
  C   C2025     1.0  0.97986  0.48139  0.34752  1.0000
  H   H3554     1.0  0.82707  0.27985  0.45594  1.0000
  H   H3555     1.0  0.87954  0.35768  0.42419  1.0000
  H   H3556     1.0  0.87791  0.48734  0.38053  1.0000
  H   H3557     1.0  0.84193  0.28287  0.14150  1.0000
  H   H3558     1.0  0.84819  0.33254  0.09224  1.0000
  S   S455      1.0  0.93338  0.42868  0.46477  1.0000
  H   H3559     1.0  0.81867  0.30593  0.03611  1.0000
  H   H3560     1.0  0.79265  0.30127  0.47152  1.0000
  C   C2026     1.0  0.81084  0.32157  0.09654  1.0000
  H   H3561     1.0  0.91499  0.48765  0.35120  1.0000
  Fe  Fe228     1.0  0.92683  0.48177  0.28602  1.0000
  H   H3562     1.0  0.80320  0.30127  0.12846  1.0000
  C   C2027     1.0  0.83189  0.28066  0.12467  1.0000
  H   H3563     1.0  0.78110  0.30592  0.01429  1.0000
  C   C2028     1.0  0.94671  0.43654  0.19387  1.0000
  H   H3564     1.0  0.77639  0.32099  0.11470  1.0000
  H   H3565     1.0  0.81745  0.27552  0.13222  1.0000
  H   H3566     1.0  0.92921  0.44189  0.22313  1.0000
  H   H3567     1.0  0.79081  0.28840  0.00831  1.0000
  H   H3568     1.0  0.91095  0.35096  0.03775  1.0000
  H   H3569     1.0  0.84852  0.32292  0.06074  1.0000
  H   H3570     1.0  0.80962  0.32339  0.04289  1.0000
  C   C2029     1.0  0.93887  0.43440  0.22133  1.0000
  H   H3571     1.0  0.94783  0.46397  0.18645  1.0000
  H   H3572     1.0  0.96737  0.46407  0.20537  1.0000
  C   C2030     1.0  0.81059  0.31038  0.05062  1.0000
  H   H3573     1.0  0.78626  0.29490  0.10214  1.0000
  H   H3574     1.0  0.85570  0.48853  0.37601  1.0000
  H   H3575     1.0  0.83872  0.34527  0.03923  1.0000
  H   H3576     1.0  0.83320  0.26983  0.11139  1.0000
  H   H3577     1.0  0.86305  0.36703  0.08640  1.0000
  H   H3578     1.0  0.79385  0.32769  0.14124  1.0000
  H   H3579     1.0  0.77458  0.30524  0.14121  1.0000
  H   H3580     1.0  0.85673  0.35732  0.43280  1.0000
  C   C2031     1.0  0.96057  0.44666  0.14241  1.0000
  C   C2032     1.0  0.84026  0.32872  0.07319  1.0000
  C   C2033     1.0  0.78457  0.31585  0.12859  1.0000
  H   H3581     1.0  0.78111  0.30067  0.06146  1.0000
  H   H3582     1.0  0.96280  0.41971  0.10719  1.0000
  C   C2034     1.0  0.97036  0.44951  0.11578  1.0000
  C   C2035     1.0  0.78201  0.29279  0.02163  1.0000
  H   H3583     1.0  0.80381  0.32992  0.08635  1.0000
  H   H3584     1.0  0.85393  0.47633  0.28652  1.0000
  H   H3585     1.0  0.83504  0.30945  0.12440  1.0000
  C   C2036     1.0  0.96152  0.43217  0.09803  1.0000
  H   H3586     1.0  0.96879  0.46142  0.10544  1.0000
  C   C2037     1.0  0.86343  0.29495  0.43910  1.0000
  C   C2038     1.0  0.84891  0.29078  0.38237  1.0000
  C   C2039     1.0  0.86063  0.36288  0.06536  1.0000
  H   H3587     1.0  0.95717  0.47884  0.14567  1.0000
  C   C2040     1.0  0.79612  0.30696  0.11371  1.0000
  C   C2041     1.0  0.83343  0.29523  0.45310  1.0000
  H   H3588     1.0  0.96219  0.43236  0.41784  1.0000
  H   H3589     1.0  0.86167  0.37535  0.05386  1.0000
  H   H3590     1.0  0.85101  0.30404  0.10415  1.0000
  H   H3591     1.0  0.84312  0.45421  0.30233  1.0000
  H   H3592     1.0  0.86159  0.28773  0.38669  1.0000
  Fe  Fe229     1.0  0.91707  0.44687  0.47149  1.0000
  H   H3593     1.0  0.86818  0.46409  0.29906  1.0000
  C   C2042     1.0  0.86909  0.35447  0.43984  1.0000
  H   H3594     1.0  0.96325  0.45261  0.31030  1.0000
  H   H3595     1.0  0.82512  0.28035  0.35444  1.0000
  H   H3596     1.0  0.98009  0.49257  0.33382  1.0000
  C   C2043     1.0  0.81683  0.30180  0.45016  1.0000
  H   H3597     1.0  0.85343  0.33196  0.46445  1.0000
  H   H3598     1.0  0.87537  0.37041  0.99104  1.0000
  H   H3599     1.0  0.80779  0.29506  0.43280  1.0000
  C   C2044     1.0  0.97813  0.46166  0.30688  1.0000
  H   H3600     1.0  0.83300  0.26261  0.36653  1.0000
  H   H3601     1.0  0.97645  0.46976  0.05956  1.0000
  H   H3602     1.0  0.85646  0.26690  0.42117  1.0000
  H   H3603     1.0  0.80933  0.28517  0.08943  1.0000
  H   H3604     1.0  0.83017  0.27359  0.41142  1.0000
  H   H3605     1.0  0.85886  0.46746  0.19748  1.0000
  C   C2045     1.0  0.83619  0.29899  0.11029  1.0000
  C   C2046     1.0  0.85405  0.32041  0.42477  1.0000
  H   H3606     1.0  0.97884  0.48829  0.03729  1.0000
  H   H3607     1.0  0.82891  0.29068  0.06971  1.0000
  H   H3608     1.0  0.93457  0.43087  0.17974  1.0000
  C   C2047     1.0  0.84127  0.34733  0.06074  1.0000
  H   H3609     1.0  0.73505  0.24786  0.32317  1.0000
  C   C2048     1.0  0.97127  0.47995  0.15297  1.0000
  C   C2049     1.0  0.83766  0.27739  0.36032  1.0000
  H   H3610     1.0  0.87531  0.30122  0.42573  1.0000
  H   H3611     1.0  0.96223  0.48870  0.38681  1.0000
  H   H3612     1.0  0.96471  0.47277  0.34979  1.0000
  H   H3613     1.0  0.85345  0.30521  0.37480  1.0000
  H   H3614     1.0  0.94605  0.44596  0.13844  1.0000
  H   H3615     1.0  0.84651  0.27912  0.34296  1.0000
  H   H3616     1.0  0.95877  0.43247  0.14897  1.0000
  N   N114      1.0  0.97008  0.46132  0.16344  1.0000
  C   C2050     1.0  0.79021  0.29570  0.04963  1.0000
  H   H3617     1.0  0.87180  0.35816  0.05906  1.0000
  H   H3618     1.0  0.95038  0.43996  0.23637  1.0000
  N   N115      1.0  0.82080  0.31412  0.07694  1.0000
  C   C2051     1.0  0.87617  0.27045  0.45299  1.0000
  H   H3619     1.0  0.84466  0.47991  0.33220  1.0000
  H   H3620     1.0  0.95496  0.42764  0.19243  1.0000
  H   H3621     1.0  0.80282  0.25122  0.43283  1.0000
  H   H3622     1.0  0.79932  0.25701  0.38539  1.0000
  H   H3623     1.0  0.85886  0.46779  0.34424  1.0000
  H   H3624     1.0  0.86907  0.30133  0.45870  1.0000
  H   H3625     1.0  0.96235  0.46325  0.40731  1.0000
  H   H3626     1.0  0.87596  0.33223  0.45552  1.0000
  S   S456      1.0  0.92924  0.46410  0.32045  1.0000
  C   C2052     1.0  0.85771  0.47754  0.32905  1.0000
  H   H3627     1.0  0.94645  0.42932  0.09393  1.0000
  H   H3628     1.0  0.88881  0.27710  0.44113  1.0000
  H   H3629     1.0  0.84714  0.26644  0.45299  1.0000
  H   H3630     1.0  0.85069  0.48686  0.42405  1.0000
  C   C2053     1.0  0.80450  0.29657  0.47408  1.0000
  H   H3631     1.0  0.96887  0.43452  0.07919  1.0000
  H   H3632     1.0  0.86913  0.48257  0.22549  1.0000
  C   C2054     1.0  0.86956  0.48125  0.20389  1.0000
  H   H3633     1.0  0.87351  0.48561  0.42892  1.0000
  H   H3634     1.0  0.90656  0.48665  0.39837  1.0000
  H   H3635     1.0  0.88357  0.48164  0.19854  1.0000
  H   H3636     1.0  0.97626  0.49165  0.07183  1.0000
  H   H3637     1.0  0.87918  0.27628  0.47331  1.0000
  H   H3638     1.0  0.79864  0.28115  0.47661  1.0000
  H   H3639     1.0  0.97093  0.49003  0.47070  1.0000
  H   H3640     1.0  0.97852  0.47334  0.29406  1.0000
  H   H3641     1.0  0.88740  0.49131  0.32955  1.0000
  H   H3642     1.0  0.98048  0.48394  0.13581  1.0000
  S   S457      1.0  0.78908  0.24302  0.09221  1.0000
  C   C2055     1.0  0.97940  0.47717  0.55575  1.0000
  S   S458      1.0  0.93891  0.46673  0.49861  1.0000
  H   H3643     1.0  0.78931  0.28777  0.63126  1.0000
  Fe  Fe230     1.0  0.91844  0.41252  0.50005  1.0000
  S   S459      1.0  0.90067  0.42990  0.50507  1.0000
  H   H3644     1.0  0.95850  0.48385  0.82322  1.0000
  H   H3645     1.0  0.95456  0.41288  0.60814  1.0000
  S   S460      1.0  0.91218  0.46603  0.94154  1.0000
  Fe  Fe231     1.0  0.92446  0.44851  0.53185  1.0000
  S   S461      1.0  0.92486  0.46749  0.56691  1.0000
  C   C2056     1.0  0.97086  0.45182  0.69047  1.0000
  S   S462      1.0  0.94157  0.43073  0.52823  1.0000
  Fe  Fe232     1.0  0.91707  0.47837  0.78329  1.0000
  S   S463      1.0  0.91270  0.45804  0.81708  1.0000
  Fe  Fe233     1.0  0.91408  0.47743  0.72265  1.0000
  S   S464      1.0  0.90683  0.45604  0.68859  1.0000
  S   S465      1.0  0.93602  0.47633  0.75163  1.0000
  S   S466      1.0  0.89395  0.47725  0.75437  1.0000
  Fe  Fe234     1.0  0.83317  0.26934  0.52852  1.0000
  S   S467      1.0  0.80168  0.25513  0.52191  1.0000
  S   S468      1.0  0.84356  0.30174  0.52799  1.0000
  H   H3646     1.0  0.87430  0.45412  0.50964  1.0000
  C   C2057     1.0  0.87029  0.46507  0.51895  1.0000
  Fe  Fe235     1.0  0.92062  0.45096  0.97515  1.0000
  H   H3647     1.0  0.83778  0.26471  0.90427  1.0000
  H   H3648     1.0  0.81372  0.31444  0.55160  1.0000
  H   H3649     1.0  0.85794  0.24374  0.87375  1.0000
  H   H3650     1.0  0.97630  0.48087  0.53571  1.0000
  C   C2058     1.0  0.85051  0.28926  0.61766  1.0000
  S   S469      1.0  0.93699  0.43239  0.97137  1.0000
  H   H3651     1.0  0.86313  0.27618  0.64595  1.0000
  H   H3652     1.0  0.86177  0.47363  0.92512  1.0000
  H   H3653     1.0  0.85429  0.26259  0.61615  1.0000
  C   C2059     1.0  0.95952  0.44057  0.64604  1.0000
  C   C2060     1.0  0.83825  0.32618  0.61448  1.0000
  C   C2061     1.0  0.82564  0.31068  0.63272  1.0000
  H   H3654     1.0  0.96648  0.44962  0.89439  1.0000
  C   C2062     1.0  0.79838  0.29688  0.58318  1.0000
  C   C2063     1.0  0.89118  0.35862  0.50848  1.0000
  C   C2064     1.0  0.89387  0.34163  0.50555  1.0000
  C   C2065     1.0  0.87963  0.32418  0.51150  1.0000
  C   C2066     1.0  0.86236  0.32338  0.52057  1.0000
  C   C2067     1.0  0.85967  0.34034  0.52359  1.0000
  C   C2068     1.0  0.87391  0.35779  0.51762  1.0000
  H   H3655     1.0  0.68100  0.49228  0.93946  1.0000
  H   H3656     1.0  0.88208  0.31139  0.50914  1.0000
  H   H3657     1.0  0.84643  0.34002  0.53054  1.0000
  H   H3658     1.0  0.87149  0.37060  0.51997  1.0000
  C   C2069     1.0  0.91986  0.46381  0.60069  1.0000
  C   C2070     1.0  0.92280  0.47947  0.61713  1.0000
  C   C2071     1.0  0.91883  0.47737  0.64397  1.0000
  C   C2072     1.0  0.91190  0.45953  0.65480  1.0000
  C   C2073     1.0  0.90901  0.44387  0.63838  1.0000
  C   C2074     1.0  0.91297  0.44597  0.61149  1.0000
  H   H3659     1.0  0.82379  0.26591  0.62067  1.0000
  C   C2075     1.0  0.84168  0.24459  0.76572  1.0000
  H   H3660     1.0  0.90358  0.43000  0.64650  1.0000
  H   H3661     1.0  0.91045  0.43379  0.59908  1.0000
  C   C2076     1.0  0.91461  0.46414  0.90719  1.0000
  C   C2077     1.0  0.91328  0.44737  0.89504  1.0000
  C   C2078     1.0  0.91296  0.44586  0.86747  1.0000
  C   C2079     1.0  0.91454  0.46121  0.85172  1.0000
  C   C2080     1.0  0.91696  0.47829  0.86390  1.0000
  C   C2081     1.0  0.91656  0.47960  0.89142  1.0000
  H   H3662     1.0  0.91160  0.43531  0.90683  1.0000
  H   H3663     1.0  0.91116  0.43259  0.85828  1.0000
  H   H3664     1.0  0.96608  0.47720  0.63723  1.0000
  H   H3665     1.0  0.79179  0.26635  0.62451  1.0000
  H   H3666     1.0  0.83832  0.34949  0.63899  1.0000
  C   C2082     1.0  0.95185  0.44785  0.70365  1.0000
  H   H3667     1.0  0.95892  0.47363  0.91072  1.0000
  H   H3668     1.0  0.97395  0.43896  0.69256  1.0000
  H   H3669     1.0  0.80498  0.26552  0.66760  1.0000
  C   C2083     1.0  0.79898  0.28031  0.63424  1.0000
  H   H3670     1.0  0.82960  0.32903  0.59874  1.0000
  C   C2084     1.0  0.84951  0.26396  0.89276  1.0000
  H   H3671     1.0  0.85170  0.48136  0.84020  1.0000
  H   H3672     1.0  0.97896  0.43028  0.95402  1.0000
  H   H3673     1.0  0.92092  0.48952  0.65625  1.0000
  C   C2085     1.0  0.84850  0.34456  0.62962  1.0000
  C   C2086     1.0  0.86150  0.27699  0.62440  1.0000
  C   C2087     1.0  0.81390  0.28995  0.59248  1.0000
  S   S470      1.0  0.83276  0.25390  0.56595  1.0000
  H   H3674     1.0  0.96499  0.45170  0.85059  1.0000
  H   H3675     1.0  0.93424  0.41921  0.60698  1.0000
  H   H3676     1.0  0.84891  0.32224  0.60479  1.0000
  C   C2088     1.0  0.94929  0.42383  0.60224  1.0000
  H   H3677     1.0  0.85167  0.45040  0.82817  1.0000
  C   C2089     1.0  0.79978  0.27690  0.66405  1.0000
  H   H3678     1.0  0.88580  0.48335  0.80875  1.0000
  H   H3679     1.0  0.96199  0.42587  0.92745  1.0000
  H   H3680     1.0  0.94872  0.46070  0.70478  1.0000
  H   H3681     1.0  0.80949  0.27523  0.58505  1.0000
  H   H3682     1.0  0.93833  0.43795  0.74034  1.0000
  H   H3683     1.0  0.80915  0.28974  0.67479  1.0000
  H   H3684     1.0  0.83379  0.31124  0.65123  1.0000
  H   H3685     1.0  0.77491  0.28202  0.67469  1.0000
  N   N116      1.0  0.97185  0.45741  0.66216  1.0000
  H   H3686     1.0  0.86282  0.27041  0.90446  1.0000
  H   H3687     1.0  0.86206  0.45902  0.53648  1.0000
  H   H3688     1.0  0.96306  0.45198  0.74382  1.0000
  H   H3689     1.0  0.85048  0.29079  0.59612  1.0000
  C   C2090     1.0  0.83037  0.28067  0.62802  1.0000
  H   H3690     1.0  0.87015  0.44921  0.80832  1.0000
  H   H3691     1.0  0.85444  0.45945  0.79521  1.0000
  H   H3692     1.0  0.83377  0.47614  0.70903  1.0000
  H   H3693     1.0  0.81018  0.47425  0.71494  1.0000
  H   H3694     1.0  0.85830  0.30312  0.62717  1.0000
  H   H3695     1.0  0.88282  0.47479  0.84143  1.0000
  H   H3696     1.0  0.96234  0.42795  0.65153  1.0000
  H   H3697     1.0  0.80443  0.25082  0.93273  1.0000
  H   H3698     1.0  0.82690  0.29770  0.58193  1.0000
  H   H3699     1.0  0.81425  0.31532  0.63860  1.0000
  H   H3700     1.0  0.94450  0.43699  0.65044  1.0000
  H   H3701     1.0  0.97563  0.48808  0.69552  1.0000
  H   H3702     1.0  0.87569  0.28311  0.61606  1.0000
  H   H3703     1.0  0.79982  0.29046  0.54189  1.0000
  H   H3704     1.0  0.88608  0.48677  0.91903  1.0000
  H   H3705     1.0  0.83235  0.27994  0.64952  1.0000
  C   C2091     1.0  0.87530  0.47698  0.82388  1.0000
  C   C2092     1.0  0.97712  0.43288  0.93298  1.0000
  H   H3706     1.0  0.80233  0.25574  0.88492  1.0000
  H   H3707     1.0  0.78116  0.26697  0.69654  1.0000
  C   C2093     1.0  0.80028  0.30242  0.55447  1.0000
  H   H3708     1.0  0.95508  0.45297  0.60910  1.0000
  H   H3709     1.0  0.82940  0.48842  0.73653  1.0000
  H   H3710     1.0  0.78438  0.28545  0.58531  1.0000
  C   C2094     1.0  0.96076  0.44253  0.61591  1.0000
  H   H3711     1.0  0.95507  0.42800  0.73161  1.0000
  H   H3712     1.0  0.69372  0.48414  0.96329  1.0000
  C   C2095     1.0  0.90016  0.49038  0.50331  1.0000
  H   H3713     1.0  0.85696  0.35546  0.61598  1.0000
  H   H3714     1.0  0.94011  0.43692  0.69270  1.0000
  H   H3715     1.0  0.82853  0.24481  0.75663  1.0000
  H   H3716     1.0  0.89558  0.47723  0.54193  1.0000
  C   C2096     1.0  0.95220  0.44103  0.73155  1.0000
  C   C2097     1.0  0.86197  0.45786  0.81325  1.0000
  C   C2098     1.0  0.82517  0.48390  0.71590  1.0000
  S   S471      1.0  0.90963  0.38017  0.49963  1.0000
  S   S472      1.0  0.83904  0.24778  0.50371  1.0000
  Fe  Fe236     1.0  0.95457  0.44819  0.49350  1.0000
  H   H3717     1.0  0.94965  0.46799  0.66186  1.0000
  H   H3718     1.0  0.85814  0.34276  0.64489  1.0000
  H   H3719     1.0  0.79866  0.30909  0.59501  1.0000
  C   C2099     1.0  0.86467  0.48991  0.83019  1.0000
  N   N117      1.0  0.81756  0.29085  0.62172  1.0000
  C   C2100     1.0  0.78033  0.27063  0.67570  1.0000
  H   H3720     1.0  0.89046  0.49151  0.48758  1.0000
  H   H3721     1.0  0.78855  0.30657  0.54826  1.0000
  H   H3722     1.0  0.97536  0.44684  0.60933  1.0000
  C   C2101     1.0  0.96488  0.47297  0.65805  1.0000
  C   C2102     1.0  0.86671  0.48642  0.88693  1.0000
  H   H3723     1.0  0.85217  0.25920  0.76731  1.0000
  H   H3724     1.0  0.90537  0.47958  0.49620  1.0000
  C   C2103     1.0  0.87167  0.48652  0.91609  1.0000
  C   C2104     1.0  0.97285  0.48526  0.90842  1.0000
  H   H3725     1.0  0.77036  0.25803  0.66504  1.0000
  C   C2105     1.0  0.96503  0.46609  0.85139  1.0000
  H   H3726     1.0  0.97574  0.45955  0.94140  1.0000
  H   H3727     1.0  0.85058  0.27217  0.87472  1.0000
  H   H3728     1.0  0.90712  0.34199  0.49854  1.0000
  H   H3729     1.0  0.86129  0.46910  0.50500  1.0000
  H   H3730     1.0  0.86704  0.47335  0.87822  1.0000
  H   H3731     1.0  0.95056  0.42540  0.58080  1.0000
  H   H3732     1.0  0.96698  0.47495  0.56781  1.0000
  H   H3733     1.0  0.73455  0.24842  0.83062  1.0000
  C   C2106     1.0  0.88780  0.48210  0.52715  1.0000
  H   H3734     1.0  0.81272  0.30348  0.49205  1.0000
  H   H3735     1.0  0.85211  0.48555  0.88507  1.0000
  C   C2107     1.0  0.96236  0.47141  0.82328  1.0000
  H   H3736     1.0  0.95078  0.45965  0.81331  1.0000
  H   H3737     1.0  0.95291  0.46580  0.86287  1.0000
  H   H3738     1.0  0.65788  0.49104  0.58027  1.0000
  H   H3739     1.0  0.91858  0.49030  0.85210  1.0000
  H   H3740     1.0  0.97526  0.47433  0.81197  1.0000
  C   C2108     1.0  0.97521  0.49113  0.67452  1.0000
  H   H3741     1.0  0.97755  0.49000  0.75826  1.0000
  H   H3742     1.0  0.97847  0.48930  0.92880  1.0000
  C   C2109     1.0  0.84597  0.24365  0.88537  1.0000
  H   H3743     1.0  0.88324  0.49260  0.53653  1.0000
  H   H3744     1.0  0.91770  0.49266  0.90061  1.0000
  C   C2110     1.0  0.91670  0.51298  0.45758  1.0000
  H   H3745     1.0  0.90572  0.51099  0.36628  1.0000
  H   H3746     1.0  0.71125  0.57218  0.38468  1.0000
  H   H3747     1.0  0.67616  0.55722  0.09378  1.0000
  H   H3748     1.0  0.73534  0.50952  0.98648  1.0000
  S   S473      1.0  0.90496  0.53535  0.26729  1.0000
  S   S474      1.0  0.82603  0.70437  0.31721  1.0000
  Fe  Fe237     1.0  0.82748  0.60627  0.29422  1.0000
  S   S475      1.0  0.79760  0.60325  0.29191  1.0000
  S   S476      1.0  0.85012  0.63496  0.30236  1.0000
  Fe  Fe238     1.0  0.81721  0.56441  0.28568  1.0000
  S   S477      1.0  0.78617  0.55885  0.28322  1.0000
  S   S478      1.0  0.82432  0.53845  0.28049  1.0000
  Fe  Fe239     1.0  0.79475  0.58403  0.25740  1.0000
  S   S479      1.0  0.77907  0.58939  0.22188  1.0000
  Fe  Fe240     1.0  0.79211  0.57873  0.31805  1.0000
  S   S480      1.0  0.77262  0.57754  0.35170  1.0000
  S   S481      1.0  0.82532  0.58862  0.25801  1.0000
  S   S482      1.0  0.82241  0.58256  0.32220  1.0000
  S   S483      1.0  0.88458  0.69347  0.06085  1.0000
  Fe  Fe241     1.0  0.77691  0.58736  0.00797  1.0000
  S   S484      1.0  0.76180  0.60720  0.00885  1.0000
  H   H3749     1.0  0.77567  0.53680  0.00020  1.0000
  Fe  Fe242     1.0  0.77572  0.58270  0.06774  1.0000
  S   S485      1.0  0.76036  0.60179  0.07220  1.0000
  S   S486      1.0  0.78623  0.57028  0.10196  1.0000
  Fe  Fe243     1.0  0.74260  0.58662  0.03703  1.0000
  S   S487      1.0  0.71087  0.57950  0.03953  1.0000
  Fe  Fe244     1.0  0.78085  0.62031  0.04401  1.0000
  S   S488      1.0  0.79552  0.65114  0.05573  1.0000
  S   S489      1.0  0.75682  0.56612  0.03428  1.0000
  S   S490      1.0  0.79702  0.60185  0.04120  1.0000
  C   C2111     1.0  0.85978  0.68213  0.05932  1.0000
  C   C2112     1.0  0.84824  0.68923  0.07269  1.0000
  C   C2113     1.0  0.82861  0.67948  0.07170  1.0000
  C   C2114     1.0  0.82032  0.66250  0.05747  1.0000
  C   C2115     1.0  0.83187  0.65543  0.04409  1.0000
  C   C2116     1.0  0.85148  0.66522  0.04498  1.0000
  H   H3750     1.0  0.85445  0.70215  0.08397  1.0000
  H   H3751     1.0  0.81978  0.68514  0.08196  1.0000
  H   H3752     1.0  0.82564  0.64257  0.03268  1.0000
  H   H3753     1.0  0.86029  0.65964  0.03452  1.0000
  C   C2117     1.0  0.78400  0.57561  0.13524  1.0000
  C   C2118     1.0  0.79110  0.56738  0.15500  1.0000
  C   C2119     1.0  0.78990  0.57157  0.18165  1.0000
  C   C2120     1.0  0.78141  0.58394  0.18874  1.0000
  C   C2121     1.0  0.77411  0.59198  0.16896  1.0000
  C   C2122     1.0  0.77548  0.58792  0.14237  1.0000
  H   H3754     1.0  0.79762  0.55774  0.14969  1.0000
  H   H3755     1.0  0.79539  0.56514  0.19670  1.0000
  H   H3756     1.0  0.76749  0.60154  0.17427  1.0000
  H   H3757     1.0  0.77005  0.59440  0.12740  1.0000
  C   C2123     1.0  0.77994  0.58123  0.38521  1.0000
  C   C2124     1.0  0.79493  0.57701  0.39490  1.0000
  C   C2125     1.0  0.79935  0.57857  0.42196  1.0000
  C   C2126     1.0  0.78904  0.58464  0.43962  1.0000
  C   C2127     1.0  0.77467  0.58981  0.42978  1.0000
  C   C2128     1.0  0.76992  0.58778  0.40277  1.0000
  H   H3758     1.0  0.80270  0.57189  0.38165  1.0000
  H   H3759     1.0  0.81060  0.57469  0.42934  1.0000
  H   H3760     1.0  0.76708  0.59507  0.44308  1.0000
  H   H3761     1.0  0.75845  0.59130  0.39537  1.0000
  C   C2129     1.0  0.83251  0.68484  0.31454  1.0000
  C   C2130     1.0  0.82033  0.66860  0.30142  1.0000
  C   C2131     1.0  0.82547  0.65315  0.29792  1.0000
  C   C2132     1.0  0.84282  0.65375  0.30759  1.0000
  C   C2133     1.0  0.85490  0.66991  0.32099  1.0000
  C   C2134     1.0  0.84967  0.68528  0.32475  1.0000
  H   H3762     1.0  0.80700  0.66807  0.29350  1.0000
  H   H3763     1.0  0.81618  0.64108  0.28698  1.0000
  H   H3764     1.0  0.86834  0.67053  0.32863  1.0000
  H   H3765     1.0  0.85892  0.69738  0.33566  1.0000
  C   C2135     1.0  0.88235  0.53566  0.27137  1.0000
  C   C2136     1.0  0.88083  0.55291  0.27664  1.0000
  C   C2137     1.0  0.86318  0.55405  0.27929  1.0000
  C   C2138     1.0  0.84684  0.53788  0.27680  1.0000
  C   C2139     1.0  0.84836  0.52061  0.27159  1.0000
  C   C2140     1.0  0.86602  0.51950  0.26874  1.0000
  H   H3766     1.0  0.89340  0.56552  0.27856  1.0000
  H   H3767     1.0  0.86219  0.56741  0.28336  1.0000
  H   H3768     1.0  0.83576  0.50804  0.26960  1.0000
  H   H3769     1.0  0.86699  0.50621  0.26427  1.0000
  H   H3770     1.0  0.93313  0.49850  0.11565  1.0000
  H   H3771     1.0  0.88967  0.70180  0.99728  1.0000
  C   C2141     1.0  0.67240  0.56157  0.03367  1.0000
  C   C2142     1.0  0.68987  0.56029  0.02951  1.0000
  C   C2143     1.0  0.69004  0.54383  0.01807  1.0000
  C   C2144     1.0  0.67299  0.52906  0.01058  1.0000
  H   H3772     1.0  0.67203  0.57417  0.04258  1.0000
  H   H3773     1.0  0.70328  0.54248  0.01503  1.0000
  H   H3774     1.0  0.74600  0.56718  0.46557  1.0000
  Fe  Fe245     1.0  0.89950  0.72429  0.07265  1.0000
  H   H3775     1.0  0.82684  0.54163  0.18729  1.0000
  H   H3776     1.0  0.71204  0.58245  0.42500  1.0000
  C   C2145     1.0  0.71689  0.58299  0.46654  1.0000
  H   H3777     1.0  0.90730  0.49848  0.45194  1.0000
  C   C2146     1.0  0.83921  0.52984  0.34680  1.0000
  H   H3778     1.0  0.71063  0.53666  0.35629  1.0000
  H   H3779     1.0  0.84050  0.61925  0.04218  1.0000
  H   H3780     1.0  0.85138  0.49585  0.19644  1.0000
  C   C2147     1.0  0.67883  0.52670  0.43032  1.0000
  N   N118      1.0  0.71087  0.55483  0.43452  1.0000
  H   H3781     1.0  0.88259  0.51720  0.21984  1.0000
  C   C2148     1.0  0.96400  0.52442  0.38720  1.0000
  C   C2149     1.0  0.71889  0.57579  0.43878  1.0000
  H   H3782     1.0  0.70792  0.55664  0.34161  1.0000
  H   H3783     1.0  0.75025  0.54059  0.11525  1.0000
  H   H3784     1.0  0.69139  0.54657  0.08170  1.0000
  C   C2150     1.0  0.71442  0.55201  0.35834  1.0000
  H   H3785     1.0  0.72990  0.55928  0.35742  1.0000
  Fe  Fe246     1.0  0.95335  0.51045  0.24972  1.0000
  H   H3786     1.0  0.82912  0.64298  0.44899  1.0000
  H   H3787     1.0  0.89423  0.54919  0.11168  1.0000
  H   H3788     1.0  0.80270  0.66029  0.99927  1.0000
  C   C2151     1.0  0.72462  0.55918  0.11102  1.0000
  S   S491      1.0  0.93954  0.51312  0.28675  1.0000
  H   H3789     1.0  0.93837  0.51171  0.43232  1.0000
  H   H3790     1.0  0.73401  0.58179  0.43409  1.0000
  C   C2152     1.0  0.97897  0.49686  0.17248  1.0000
  C   C2153     1.0  0.87994  0.54884  0.11522  1.0000
  C   C2154     1.0  0.84698  0.51438  0.34545  1.0000
  H   H3791     1.0  0.82446  0.69016  0.02031  1.0000
  H   H3792     1.0  0.83373  0.56050  0.21124  1.0000
  H   H3793     1.0  0.84108  0.53599  0.36690  1.0000
  C   C2155     1.0  0.65768  0.52166  0.43161  1.0000
  C   C2156     1.0  0.87699  0.55002  0.14455  1.0000
  C   C2157     1.0  0.91342  0.55317  0.19500  1.0000
  C   C2158     1.0  0.72479  0.60439  0.46776  1.0000
  H   H3794     1.0  0.84307  0.50755  0.32580  1.0000
  C   C2159     1.0  0.92722  0.57144  0.20751  1.0000
  H   H3795     1.0  0.87395  0.53062  0.33119  1.0000
  C   C2160     1.0  0.87340  0.50854  0.40432  1.0000
  C   C2161     1.0  0.88090  0.51639  0.19813  1.0000
  N   N119      1.0  0.87791  0.50887  0.35402  1.0000
  H   H3796     1.0  0.91228  0.70416  0.28831  1.0000
  H   H3797     1.0  0.88763  0.56347  0.15206  1.0000
  H   H3798     1.0  0.86274  0.55005  0.14673  1.0000
  H   H3799     1.0  0.91691  0.54174  0.20358  1.0000
  H   H3800     1.0  0.91589  0.55365  0.17369  1.0000
  H   H3801     1.0  0.82399  0.52395  0.34146  1.0000
  H   H3802     1.0  0.86668  0.72245  0.16395  1.0000
  H   H3803     1.0  0.89163  0.53148  0.15265  1.0000
  S   S492      1.0  0.87867  0.73483  0.32914  1.0000
  H   H3804     1.0  0.87843  0.56095  0.10533  1.0000
  H   H3805     1.0  0.86565  0.51804  0.40349  1.0000
  H   H3806     1.0  0.77615  0.64167  0.34383  1.0000
  C   C2162     1.0  0.80264  0.67400  0.99302  1.0000
  H   H3807     1.0  0.87959  0.70734  0.16131  1.0000
  N   N120      1.0  0.82191  0.64913  0.39559  1.0000
  C   C2163     1.0  0.83884  0.66733  0.39593  1.0000
  C   C2164     1.0  0.82855  0.63311  0.39596  1.0000
  C   C2165     1.0  0.81011  0.64829  0.37128  1.0000
  C   C2166     1.0  0.81013  0.64771  0.41926  1.0000
  H   H3808     1.0  0.83606  0.59470  0.04465  1.0000
  C   C2167     1.0  0.83475  0.68550  0.39696  1.0000
  C   C2168     1.0  0.79314  0.62958  0.36608  1.0000
  C   C2169     1.0  0.83856  0.63044  0.37117  1.0000
  C   C2170     1.0  0.84559  0.61459  0.37473  1.0000
  H   H3809     1.0  0.92496  0.58367  0.19921  1.0000
  C   C2171     1.0  0.85297  0.70282  0.39978  1.0000
  C   C2172     1.0  0.78190  0.63060  0.34153  1.0000
  H   H3810     1.0  0.84698  0.66841  0.37798  1.0000
  H   H3811     1.0  0.84872  0.66778  0.41240  1.0000
  H   H3812     1.0  0.83859  0.63490  0.41269  1.0000
  H   H3813     1.0  0.81667  0.61960  0.39943  1.0000
  H   H3814     1.0  0.81890  0.65141  0.35369  1.0000
  H   H3815     1.0  0.80427  0.65940  0.37213  1.0000
  H   H3816     1.0  0.80229  0.65713  0.41755  1.0000
  C   C2173     1.0  0.90963  0.53024  0.33441  1.0000
  C   C2174     1.0  0.87856  0.53308  0.15879  1.0000
  C   C2175     1.0  0.87543  0.49601  0.33047  1.0000
  H   H3817     1.0  0.82753  0.68696  0.37854  1.0000
  H   H3818     1.0  0.82588  0.68564  0.41361  1.0000
  H   H3819     1.0  0.78343  0.62625  0.38258  1.0000
  H   H3820     1.0  0.79781  0.61784  0.36312  1.0000
  H   H3821     1.0  0.82894  0.62686  0.35372  1.0000
  H   H3822     1.0  0.85093  0.64321  0.36696  1.0000
  H   H3823     1.0  0.83369  0.60118  0.37816  1.0000
  H   H3824     1.0  0.85269  0.61299  0.35676  1.0000
  H   H3825     1.0  0.85584  0.61776  0.39148  1.0000
  C   C2176     1.0  0.70744  0.55681  0.38408  1.0000
  C   C2177     1.0  0.65534  0.54675  0.02629  1.0000
  C   C2178     1.0  0.84454  0.60886  0.05291  1.0000
  H   H3826     1.0  0.85570  0.73233  0.25274  1.0000
  H   H3827     1.0  0.84984  0.71568  0.39871  1.0000
  H   H3828     1.0  0.86023  0.70296  0.41886  1.0000
  H   H3829     1.0  0.65794  0.52607  0.07482  1.0000
  H   H3830     1.0  0.82925  0.53704  0.22158  1.0000
  H   H3831     1.0  0.65007  0.50640  0.42781  1.0000
  H   H3832     1.0  0.74677  0.55185  0.43932  1.0000
  H   H3833     1.0  0.93666  0.52978  0.34667  1.0000
  C   C2179     1.0  0.89288  0.55051  0.20045  1.0000
  C   C2180     1.0  0.97651  0.51657  0.37264  1.0000
  H   H3834     1.0  0.92555  0.57137  0.22906  1.0000
  H   H3835     1.0  0.69089  0.53483  0.13130  1.0000
  H   H3836     1.0  0.90458  0.67205  0.13122  1.0000
  H   H3837     1.0  0.89131  0.70272  0.30446  1.0000
  H   H3838     1.0  0.83188  0.59932  0.20138  1.0000
  C   C2181     1.0  0.85855  0.53201  0.19678  1.0000
  H   H3839     1.0  0.89149  0.55029  0.22205  1.0000
  H   H3840     1.0  0.96321  0.51235  0.15538  1.0000
  N   N121      1.0  0.85753  0.69709  0.23708  1.0000
  C   C2182     1.0  0.84093  0.70263  0.24053  1.0000
  C   C2183     1.0  0.85159  0.67604  0.23887  1.0000
  C   C2184     1.0  0.87139  0.70611  0.25943  1.0000
  C   C2185     1.0  0.86724  0.70412  0.21181  1.0000
  C   C2186     1.0  0.85524  0.69692  0.18635  1.0000
  H   H3841     1.0  0.87673  0.72368  0.01608  1.0000
  C   C2187     1.0  0.88860  0.70036  0.26186  1.0000
  C   C2188     1.0  0.83157  0.66347  0.22849  1.0000
  C   C2189     1.0  0.82890  0.64281  0.22756  1.0000
  C   C2190     1.0  0.86536  0.70764  0.16262  1.0000
  H   H3842     1.0  0.84744  0.52343  0.18237  1.0000
  C   C2191     1.0  0.89999  0.70828  0.28714  1.0000
  H   H3843     1.0  0.83472  0.69796  0.25996  1.0000
  H   H3844     1.0  0.82948  0.69543  0.22601  1.0000
  H   H3845     1.0  0.86183  0.67142  0.22893  1.0000
  H   H3846     1.0  0.85195  0.67198  0.25967  1.0000
  H   H3847     1.0  0.86411  0.70314  0.27840  1.0000
  H   H3848     1.0  0.87735  0.72159  0.25792  1.0000
  H   H3849     1.0  0.87327  0.71971  0.21190  1.0000
  H   H3850     1.0  0.87954  0.70012  0.20994  1.0000
  H   H3851     1.0  0.83426  0.73383  0.46533  1.0000
  H   H3852     1.0  0.85269  0.68193  0.18295  1.0000
  H   H3853     1.0  0.86805  0.50347  0.44563  1.0000
  H   H3854     1.0  0.93290  0.55051  0.35742  1.0000
  H   H3855     1.0  0.89808  0.70592  0.24532  1.0000
  H   H3856     1.0  0.88441  0.68495  0.26217  1.0000
  H   H3857     1.0  0.82094  0.66483  0.24178  1.0000
  H   H3858     1.0  0.82851  0.66732  0.20863  1.0000
  H   H3859     1.0  0.81427  0.63404  0.22113  1.0000
  H   H3860     1.0  0.83863  0.64055  0.21363  1.0000
  H   H3861     1.0  0.83160  0.63812  0.24716  1.0000
  H   H3862     1.0  0.65397  0.52507  0.45134  1.0000
  C   C2192     1.0  0.74589  0.54068  0.47755  1.0000
  H   H3863     1.0  0.85720  0.70128  0.14437  1.0000
  C   C2193     1.0  0.65550  0.53038  0.01453  1.0000
  C   C2194     1.0  0.82082  0.65182  0.44620  1.0000
  H   H3864     1.0  0.86936  0.53575  0.10640  1.0000
  H   H3865     1.0  0.90518  0.72380  0.28770  1.0000
  H   H3866     1.0  0.85079  0.72745  0.44741  1.0000
  H   H3867     1.0  0.65423  0.52618  0.10948  1.0000
  C   C2195     1.0  0.70922  0.58152  0.11749  1.0000
  C   C2196     1.0  0.71690  0.56672  0.15563  1.0000
  C   C2197     1.0  0.72681  0.59973  0.12250  1.0000
  H   H3868     1.0  0.89217  0.68227  0.15206  1.0000
  C   C2198     1.0  0.72619  0.61567  0.10548  1.0000
  H   H3869     1.0  0.89984  0.69196  0.12047  1.0000
  H   H3870     1.0  0.69724  0.58381  0.12654  1.0000
  H   H3871     1.0  0.70607  0.58041  0.09602  1.0000
  H   H3872     1.0  0.70695  0.57094  0.16701  1.0000
  H   H3873     1.0  0.73082  0.57845  0.15795  1.0000
  H   H3874     1.0  0.72499  0.56448  0.09074  1.0000
  H   H3875     1.0  0.71042  0.53128  0.09260  1.0000
  H   H3876     1.0  0.72754  0.60442  0.14326  1.0000
  H   H3877     1.0  0.73981  0.59746  0.11851  1.0000
  H   H3878     1.0  0.73628  0.52072  0.09506  1.0000
  H   H3879     1.0  0.71363  0.61880  0.10971  1.0000
  H   H3880     1.0  0.73895  0.62848  0.10957  1.0000
  H   H3881     1.0  0.72581  0.61191  0.08437  1.0000
  H   H3882     1.0  0.73780  0.56759  0.20112  1.0000
  C   C2199     1.0  0.89867  0.52011  0.35855  1.0000
  H   H3883     1.0  0.71356  0.53002  0.44998  1.0000
  H   H3884     1.0  0.86507  0.49434  0.16912  1.0000
  H   H3885     1.0  0.68610  0.54999  0.45705  1.0000
  H   H3886     1.0  0.68255  0.51795  0.44475  1.0000
  C   C2200     1.0  0.84373  0.72852  0.02428  1.0000
  C   C2201     1.0  0.82755  0.73097  0.03929  1.0000
  H   H3887     1.0  0.69192  0.54980  0.38357  1.0000
  C   C2202     1.0  0.85751  0.72283  0.98321  1.0000
  C   C2203     1.0  0.68983  0.54781  0.43672  1.0000
  C   C2204     1.0  0.86550  0.49698  0.19055  1.0000
  H   H3888     1.0  0.93787  0.54770  0.32371  1.0000
  H   H3889     1.0  0.76082  0.51814  0.02001  1.0000
  C   C2205     1.0  0.82192  0.68937  0.99889  1.0000
  N   N122      1.0  0.84879  0.63288  0.12239  1.0000
  C   C2206     1.0  0.84409  0.61529  0.13814  1.0000
  C   C2207     1.0  0.85242  0.62917  0.09431  1.0000
  C   C2208     1.0  0.86674  0.64738  0.13409  1.0000
  C   C2209     1.0  0.83378  0.64084  0.12376  1.0000
  C   C2210     1.0  0.81392  0.62800  0.11375  1.0000
  C   C2211     1.0  0.83903  0.61663  0.16704  1.0000
  C   C2212     1.0  0.87555  0.66583  0.11871  1.0000
  C   C2213     1.0  0.84085  0.60952  0.08209  1.0000
  H   H3890     1.0  0.76139  0.54670  0.48059  1.0000
  C   C2214     1.0  0.79947  0.63600  0.12182  1.0000
  C   C2215     1.0  0.83793  0.59919  0.18193  1.0000
  C   C2216     1.0  0.89416  0.67875  0.13154  1.0000
  H   H3891     1.0  0.85598  0.61046  0.13770  1.0000
  H   H3892     1.0  0.83186  0.60351  0.12942  1.0000
  H   H3893     1.0  0.85043  0.63978  0.08138  1.0000
  H   H3894     1.0  0.86734  0.63085  0.09223  1.0000
  H   H3895     1.0  0.87765  0.64126  0.13632  1.0000
  H   H3896     1.0  0.86454  0.65182  0.15403  1.0000
  H   H3897     1.0  0.83283  0.64551  0.14416  1.0000
  H   H3898     1.0  0.83750  0.65366  0.11186  1.0000
  H   H3899     1.0  0.80950  0.61372  0.12158  1.0000
  H   H3900     1.0  0.81354  0.62712  0.09204  1.0000
  H   H3901     1.0  0.84957  0.62874  0.17765  1.0000
  H   H3902     1.0  0.82513  0.61781  0.16793  1.0000
  H   H3903     1.0  0.86616  0.67369  0.11815  1.0000
  H   H3904     1.0  0.87847  0.66305  0.09831  1.0000
  H   H3905     1.0  0.84500  0.59874  0.09159  1.0000
  H   H3906     1.0  0.82561  0.60548  0.08441  1.0000
  C   C2217     1.0  0.84052  0.73433  0.44588  1.0000
  C   C2218     1.0  0.86848  0.71365  0.00035  1.0000
  H   H3907     1.0  0.65293  0.52939  0.41671  1.0000
  H   H3908     1.0  0.79817  0.63573  0.14342  1.0000
  H   H3909     1.0  0.80350  0.65061  0.11504  1.0000
  H   H3910     1.0  0.78558  0.62747  0.11277  1.0000
  H   H3911     1.0  0.82887  0.58624  0.17114  1.0000
  H   H3912     1.0  0.85213  0.59893  0.18489  1.0000
  C   C2219     1.0  0.76407  0.52274  0.99956  1.0000
  H   H3913     1.0  0.94182  0.57289  0.20367  1.0000
  N   N123      1.0  0.87770  0.53335  0.18823  1.0000
  H   H3914     1.0  0.66943  0.51535  0.09655  1.0000
  C   C2220     1.0  0.73933  0.53573  0.09931  1.0000
  H   H3915     1.0  0.77004  0.61693  0.33806  1.0000
  C   C2221     1.0  0.72468  0.55489  0.19865  1.0000
  N   N124      1.0  0.71058  0.56361  0.12716  1.0000
  C   C2222     1.0  0.72154  0.53813  0.10779  1.0000
  H   H3916     1.0  0.71316  0.53525  0.40537  1.0000
  H   H3917     1.0  0.79168  0.67679  0.00397  1.0000
  C   C2223     1.0  0.74011  0.55251  0.45806  1.0000
  H   H3918     1.0  0.79085  0.63359  0.32418  1.0000
  C   C2224     1.0  0.80720  0.64778  0.46870  1.0000
  H   H3919     1.0  0.89125  0.56354  0.19438  1.0000
  H   H3920     1.0  0.90445  0.54096  0.32728  1.0000
  H   H3921     1.0  0.71318  0.55729  0.20873  1.0000
  H   H3922     1.0  0.84637  0.54114  0.33292  1.0000
  C   C2225     1.0  0.82295  0.70836  0.98827  1.0000
  H   H3923     1.0  0.82937  0.72646  0.43120  1.0000
  C   C2226     1.0  0.71960  0.55022  0.16963  1.0000
  H   H3924     1.0  0.73909  0.56690  0.11918  1.0000
  H   H3925     1.0  0.73145  0.54752  0.16106  1.0000
  H   H3926     1.0  0.90838  0.52023  0.31813  1.0000
  H   H3927     1.0  0.72705  0.54308  0.20815  1.0000
  H   H3928     1.0  0.90109  0.53128  0.37370  1.0000
  C   C2227     1.0  0.83513  0.54717  0.20571  1.0000
  H   H3929     1.0  0.74481  0.54379  0.08145  1.0000
  C   C2228     1.0  0.71633  0.55050  0.40782  1.0000
  Fe  Fe247     1.0  0.84912  0.73273  0.32562  1.0000
  C   C2229     1.0  0.93055  0.54016  0.34115  1.0000
  H   H3930     1.0  0.85496  0.52444  0.21559  1.0000
  H   H3931     1.0  0.83047  0.66674  0.44804  1.0000
  H   H3932     1.0  0.71718  0.53020  0.12596  1.0000
  H   H3933     1.0  0.74254  0.53363  0.99728  1.0000
  H   H3934     1.0  0.86358  0.55744  0.22042  1.0000
  H   H3935     1.0  0.68393  0.55612  0.42429  1.0000
  H   H3936     1.0  0.71661  0.60989  0.45442  1.0000
  C   C2230     1.0  0.69108  0.54856  0.12496  1.0000
  S   S493      1.0  0.93006  0.51132  0.22330  1.0000
  C   C2231     1.0  0.82714  0.72760  0.24326  1.0000
  H   H3937     1.0  0.88839  0.51691  0.40903  1.0000
  H   H3938     1.0  0.73179  0.55738  0.40575  1.0000
  C   C2232     1.0  0.85580  0.55064  0.20209  1.0000
  H   H3939     1.0  0.86095  0.56071  0.18610  1.0000
  C   C2233     1.0  0.68147  0.54590  0.09731  1.0000
  H   H3940     1.0  0.68166  0.55174  0.13873  1.0000
  H   H3941     1.0  0.82214  0.72327  0.26329  1.0000
  Fe  Fe248     1.0  0.91507  0.51156  0.26050  1.0000
  C   C2234     1.0  0.83257  0.73454  0.06849  1.0000
  H   H3942     1.0  0.81038  0.71086  0.99458  1.0000
  H   H3943     1.0  0.67330  0.51643  0.00185  1.0000
  H   H3944     1.0  0.70671  0.53730  0.16834  1.0000
  H   H3945     1.0  0.87246  0.53338  0.36523  1.0000
  H   H3946     1.0  0.97663  0.56554  0.30656  1.0000
  H   H3947     1.0  0.85913  0.70080  0.00984  1.0000
  H   H3948     1.0  0.85959  0.61183  0.04982  1.0000
  H   H3949     1.0  0.68172  0.52282  0.41045  1.0000
  C   C2235     1.0  0.71844  0.54525  0.45473  1.0000
  H   H3950     1.0  0.79912  0.63333  0.42033  1.0000
  H   H3951     1.0  0.84947  0.72880  0.21838  1.0000
  C   C2236     1.0  0.74664  0.52369  0.98580  1.0000
  H   H3952     1.0  0.83993  0.50413  0.36058  1.0000
  H   H3953     1.0  0.83544  0.72273  0.07709  1.0000
  H   H3954     1.0  0.84162  0.69858  0.18714  1.0000
  H   H3955     1.0  0.86257  0.70325  0.38374  1.0000
  H   H3956     1.0  0.94928  0.51407  0.38658  1.0000
  C   C2237     1.0  0.86593  0.49526  0.42705  1.0000
  C   C2238     1.0  0.83864  0.74222  0.98352  1.0000
  H   H3957     1.0  0.83235  0.68499  0.98924  1.0000
  H   H3958     1.0  0.87582  0.50374  0.31210  1.0000
  H   H3959     1.0  0.96440  0.53745  0.37779  1.0000
  C   C2239     1.0  0.86859  0.52259  0.34922  1.0000
  S   S494      1.0  0.91702  0.73619  0.10940  1.0000
  H   H3960     1.0  0.86696  0.52053  0.15036  1.0000
  H   H3961     1.0  0.89418  0.51599  0.19070  1.0000
  H   H3962     1.0  0.84631  0.71695  0.03405  1.0000
  C   C2240     1.0  0.66475  0.52721  0.09451  1.0000
  C   C2241     1.0  0.93003  0.52052  0.43510  1.0000
  C   C2242     1.0  0.84483  0.72380  0.23828  1.0000
  H   H3963     1.0  0.92191  0.52001  0.41670  1.0000
  H   H3964     1.0  0.81583  0.71991  0.22869  1.0000
  H   H3965     1.0  0.81456  0.71814  0.03732  1.0000
  H   H3966     1.0  0.76877  0.51264  0.98929  1.0000
  H   H3967     1.0  0.85673  0.74124  0.02828  1.0000
  N   N125      1.0  0.84065  0.72508  0.99505  1.0000
  H   H3968     1.0  0.93967  0.53526  0.43918  1.0000
  C   C2243     1.0  0.88224  0.70838  0.98433  1.0000
  C   C2244     1.0  0.87084  0.49743  0.37812  1.0000
  H   H3969     1.0  0.90789  0.52136  0.45944  1.0000
  H   H3970     1.0  0.82069  0.73596  0.07886  1.0000
  H   H3971     1.0  0.96905  0.52786  0.40789  1.0000
  H   H3972     1.0  0.73974  0.61019  0.46228  1.0000
  H   H3973     1.0  0.97081  0.51326  0.35226  1.0000
  S   S495      1.0  0.79433  0.58486  0.47368  1.0000
  H   H3974     1.0  0.70200  0.57815  0.47200  1.0000
  H   H3975     1.0  0.89420  0.73098  0.45148  1.0000
  H   H3976     1.0  0.93433  0.50268  0.48082  1.0000
  H   H3977     1.0  0.97709  0.49645  0.98373  1.0000
  H   H3978     1.0  0.79785  0.63269  0.46859  1.0000
  C   C2245     1.0  0.97705  0.49887  0.38619  1.0000
  H   H3979     1.0  0.79853  0.65639  0.46719  1.0000
  H   H3980     1.0  0.74163  0.52608  0.46997  1.0000
  H   H3981     1.0  0.97088  0.49422  0.19067  1.0000
  H   H3982     1.0  0.71271  0.54610  0.47419  1.0000
  H   H3983     1.0  0.93998  0.73343  0.16176  1.0000
  H   H3984     1.0  0.97590  0.54312  0.29540  1.0000
  C   C2246     1.0  0.97799  0.51449  0.16042  1.0000
  H   H3985     1.0  0.96476  0.74233  0.16980  1.0000
  S   S496      1.0  0.88313  0.74253  0.07578  1.0000
  H   H3986     1.0  0.92549  0.49351  0.16268  1.0000
  H   H3987     1.0  0.83033  0.74283  0.24160  1.0000
  H   H3988     1.0  0.70972  0.51620  0.98138  1.0000
  H   H3989     1.0  0.70468  0.52833  0.57455  1.0000
  H   H3990     1.0  0.84375  0.54005  0.86243  1.0000
  C   C2247     1.0  0.82887  0.62063  0.88412  1.0000
  C   C2248     1.0  0.71750  0.57398  0.95814  1.0000
  C   C2249     1.0  0.69143  0.51580  0.57192  1.0000
  S   S497      1.0  0.89812  0.53293  0.75699  1.0000
  S   S498      1.0  0.82176  0.69981  0.83067  1.0000
  Fe  Fe249     1.0  0.83010  0.60943  0.79333  1.0000
  S   S499      1.0  0.80108  0.60904  0.79114  1.0000
  S   S500      1.0  0.85318  0.63811  0.79781  1.0000
  Fe  Fe250     1.0  0.81636  0.56722  0.78671  1.0000
  S   S501      1.0  0.78601  0.56424  0.78477  1.0000
  S   S502      1.0  0.82060  0.53969  0.78220  1.0000
  Fe  Fe251     1.0  0.79613  0.58873  0.75765  1.0000
  S   S503      1.0  0.78041  0.59441  0.72250  1.0000
  Fe  Fe252     1.0  0.79405  0.58501  0.81854  1.0000
  S   S504      1.0  0.77531  0.58615  0.85182  1.0000
  S   S505      1.0  0.82588  0.59060  0.75774  1.0000
  S   S506      1.0  0.82359  0.58634  0.82253  1.0000
  S   S507      1.0  0.88554  0.69938  0.57872  1.0000
  Fe  Fe253     1.0  0.78062  0.59232  0.50890  1.0000
  S   S508      1.0  0.76498  0.61159  0.50938  1.0000
  C   C2250     1.0  0.68777  0.49490  0.95930  1.0000
  Fe  Fe254     1.0  0.77952  0.58859  0.56914  1.0000
  S   S509      1.0  0.76357  0.60738  0.57312  1.0000
  S   S510      1.0  0.79214  0.57790  0.60323  1.0000
  Fe  Fe255     1.0  0.74604  0.59125  0.53804  1.0000
  S   S511      1.0  0.71402  0.58382  0.53681  1.0000
  Fe  Fe256     1.0  0.78382  0.62566  0.54427  1.0000
  S   S512      1.0  0.79807  0.65734  0.55088  1.0000
  S   S513      1.0  0.76093  0.57120  0.53587  1.0000
  S   S514      1.0  0.80050  0.60765  0.54201  1.0000
  C   C2251     1.0  0.86143  0.68838  0.56920  1.0000
  C   C2252     1.0  0.84929  0.69799  0.56933  1.0000
  C   C2253     1.0  0.82997  0.68835  0.56346  1.0000
  C   C2254     1.0  0.82259  0.66907  0.55722  1.0000
  C   C2255     1.0  0.83483  0.65962  0.55643  1.0000
  C   C2256     1.0  0.85409  0.66919  0.56247  1.0000
  H   H3991     1.0  0.85478  0.71281  0.57393  1.0000
  H   H3992     1.0  0.82068  0.69587  0.56362  1.0000
  H   H3993     1.0  0.82948  0.64495  0.55095  1.0000
  H   H3994     1.0  0.86340  0.66172  0.56167  1.0000
  C   C2257     1.0  0.78885  0.58284  0.63623  1.0000
  C   C2258     1.0  0.80053  0.58021  0.65605  1.0000
  C   C2259     1.0  0.79832  0.58402  0.68250  1.0000
  C   C2260     1.0  0.78408  0.59001  0.68944  1.0000
  C   C2261     1.0  0.77239  0.59260  0.66965  1.0000
  C   C2262     1.0  0.77485  0.58920  0.64315  1.0000
  H   H3995     1.0  0.81157  0.57559  0.65083  1.0000
  H   H3996     1.0  0.80745  0.58220  0.69764  1.0000
  H   H3997     1.0  0.76115  0.59695  0.67483  1.0000
  H   H3998     1.0  0.76566  0.59113  0.62815  1.0000
  C   C2263     1.0  0.78115  0.58591  0.88553  1.0000
  C   C2264     1.0  0.79367  0.57792  0.89431  1.0000
  C   C2265     1.0  0.79649  0.57617  0.92133  1.0000
  C   C2266     1.0  0.78704  0.58260  0.93985  1.0000
  C   C2267     1.0  0.77501  0.59120  0.93112  1.0000
  C   C2268     1.0  0.77194  0.59264  0.90406  1.0000
  H   H3999     1.0  0.80075  0.57258  0.88026  1.0000
  H   H4000     1.0  0.80580  0.56949  0.92790  1.0000
  H   H4001     1.0  0.76768  0.59624  0.94515  1.0000
  H   H4002     1.0  0.76220  0.59881  0.89743  1.0000
  C   C2269     1.0  0.83108  0.68303  0.82195  1.0000
  C   C2270     1.0  0.84731  0.68780  0.80734  1.0000
  C   C2271     1.0  0.85424  0.67404  0.80033  1.0000
  C   C2272     1.0  0.84479  0.65538  0.80750  1.0000
  C   C2273     1.0  0.82858  0.65066  0.82209  1.0000
  C   C2274     1.0  0.82173  0.66440  0.82919  1.0000
  H   H4003     1.0  0.85435  0.70198  0.80090  1.0000
  H   H4004     1.0  0.86676  0.67783  0.78898  1.0000
  H   H4005     1.0  0.82150  0.63646  0.82842  1.0000
  H   H4006     1.0  0.80924  0.66057  0.84061  1.0000
  C   C2275     1.0  0.87663  0.53426  0.76579  1.0000
  C   C2276     1.0  0.86029  0.51832  0.76857  1.0000
  C   C2277     1.0  0.84335  0.52022  0.77451  1.0000
  C   C2278     1.0  0.84254  0.53803  0.77726  1.0000
  C   C2279     1.0  0.85895  0.55395  0.77501  1.0000
  C   C2280     1.0  0.87591  0.55204  0.76937  1.0000
  H   H4007     1.0  0.79907  0.67297  0.97173  1.0000
  H   H4008     1.0  0.83070  0.50785  0.77648  1.0000
  H   H4009     1.0  0.85854  0.56773  0.77719  1.0000
  H   H4010     1.0  0.88852  0.56445  0.76732  1.0000
  C   C2281     1.0  0.87100  0.55870  0.69801  1.0000
  H   H4011     1.0  0.89441  0.50193  0.87397  1.0000
  C   C2282     1.0  0.67568  0.56575  0.52854  1.0000
  C   C2283     1.0  0.69322  0.56408  0.52755  1.0000
  C   C2284     1.0  0.69362  0.54691  0.51935  1.0000
  C   C2285     1.0  0.67678  0.53179  0.51197  1.0000
  H   H4012     1.0  0.67513  0.57894  0.53484  1.0000
  H   H4013     1.0  0.70689  0.54522  0.51911  1.0000
  H   H4014     1.0  0.66865  0.52378  0.87317  1.0000
  Fe  Fe257     1.0  0.90214  0.73105  0.58073  1.0000
  H   H4015     1.0  0.76503  0.53551  0.72840  1.0000
  C   C2286     1.0  0.84013  0.71128  0.90296  1.0000
  H   H4016     1.0  0.78767  0.53371  0.61022  1.0000
  H   H4017     1.0  0.82105  0.70621  0.96674  1.0000
  C   C2287     1.0  0.96535  0.50482  0.67184  1.0000
  H   H4018     1.0  0.70930  0.54997  0.93202  1.0000
  C   C2288     1.0  0.86500  0.52025  0.84567  1.0000
  C   C2289     1.0  0.85090  0.54919  0.70717  1.0000
  H   H4019     1.0  0.92205  0.57252  0.51472  1.0000
  H   H4020     1.0  0.97062  0.51798  0.93255  1.0000
  H   H4021     1.0  0.82159  0.52045  0.86351  1.0000
  H   H4022     1.0  0.88433  0.70930  0.87739  1.0000
  H   H4023     1.0  0.77942  0.51898  0.69785  1.0000
  H   H4024     1.0  0.85353  0.72465  0.61735  1.0000
  H   H4025     1.0  0.73936  0.54054  0.49671  1.0000
  N   N126      1.0  0.84590  0.63507  0.62853  1.0000
  C   C2290     1.0  0.86573  0.64930  0.62643  1.0000
  C   C2291     1.0  0.84015  0.62213  0.60465  1.0000
  C   C2292     1.0  0.83303  0.64571  0.62936  1.0000
  C   C2293     1.0  0.84342  0.62402  0.65326  1.0000
  C   C2294     1.0  0.85633  0.61305  0.65726  1.0000
  C   C2295     1.0  0.87382  0.66266  0.65044  1.0000
  C   C2296     1.0  0.81165  0.63352  0.62925  1.0000
  C   C2297     1.0  0.85556  0.61729  0.59113  1.0000
  C   C2298     1.0  0.84701  0.60201  0.57006  1.0000
  C   C2299     1.0  0.85485  0.60531  0.68491  1.0000
  C   C2300     1.0  0.89391  0.67625  0.64587  1.0000
  C   C2301     1.0  0.80009  0.64566  0.62670  1.0000
  H   H4026     1.0  0.86672  0.65808  0.60894  1.0000
  H   H4027     1.0  0.87578  0.64246  0.62314  1.0000
  H   H4028     1.0  0.82858  0.60870  0.60943  1.0000
  H   H4029     1.0  0.83417  0.62824  0.58886  1.0000
  H   H4030     1.0  0.83565  0.65532  0.61246  1.0000
  H   H4031     1.0  0.83592  0.65479  0.64720  1.0000
  H   H4032     1.0  0.84492  0.63326  0.67068  1.0000
  H   H4033     1.0  0.82890  0.61347  0.65402  1.0000
  H   H4034     1.0  0.87127  0.62196  0.65444  1.0000
  H   H4035     1.0  0.85198  0.60092  0.64335  1.0000
  H   H4036     1.0  0.86537  0.67112  0.65438  1.0000
  H   H4037     1.0  0.87426  0.65469  0.66822  1.0000
  H   H4038     1.0  0.80780  0.62584  0.64782  1.0000
  H   H4039     1.0  0.80722  0.62320  0.61274  1.0000
  H   H4040     1.0  0.86541  0.62989  0.58135  1.0000
  H   H4041     1.0  0.86374  0.61239  0.60519  1.0000
  H   H4042     1.0  0.85828  0.59875  0.56072  1.0000
  H   H4043     1.0  0.83697  0.58900  0.57872  1.0000
  H   H4044     1.0  0.83953  0.60678  0.55467  1.0000
  H   H4045     1.0  0.84031  0.59545  0.68843  1.0000
  H   H4046     1.0  0.86435  0.59766  0.68738  1.0000
  H   H4047     1.0  0.89945  0.68559  0.66333  1.0000
  H   H4048     1.0  0.90321  0.66851  0.64246  1.0000
  H   H4049     1.0  0.89432  0.68510  0.62872  1.0000
  H   H4050     1.0  0.78492  0.63660  0.62659  1.0000
  H   H4051     1.0  0.80336  0.65582  0.64333  1.0000
  H   H4052     1.0  0.80304  0.65335  0.60805  1.0000
  N   N127      1.0  0.79837  0.66502  0.74527  1.0000
  C   C2302     1.0  0.78145  0.65365  0.72808  1.0000
  C   C2303     1.0  0.79129  0.66816  0.77147  1.0000
  C   C2304     1.0  0.81092  0.65435  0.74969  1.0000
  C   C2305     1.0  0.82072  0.65079  0.72538  1.0000
  C   C2306     1.0  0.77949  0.65026  0.78638  1.0000
  C   C2307     1.0  0.78289  0.65690  0.69816  1.0000
  C   C2308     1.0  0.76601  0.64262  0.68324  1.0000
  C   C2309     1.0  0.83531  0.64275  0.73329  1.0000
  C   C2310     1.0  0.77048  0.65517  0.81013  1.0000
  H   H4053     1.0  0.77755  0.63835  0.73125  1.0000
  H   H4054     1.0  0.76888  0.65648  0.73368  1.0000
  H   H4055     1.0  0.78282  0.67700  0.76917  1.0000
  H   H4056     1.0  0.80309  0.67613  0.78506  1.0000
  H   H4057     1.0  0.82167  0.66128  0.76534  1.0000
  H   H4058     1.0  0.80276  0.64023  0.75736  1.0000
  H   H4059     1.0  0.82810  0.66379  0.71460  1.0000
  H   H4060     1.0  0.81023  0.64031  0.71212  1.0000
  H   H4061     1.0  0.78861  0.64308  0.79371  1.0000
  H   H4062     1.0  0.76810  0.64019  0.77385  1.0000
  H   H4063     1.0  0.78310  0.67104  0.69379  1.0000
  H   H4064     1.0  0.79571  0.65584  0.69041  1.0000
  H   H4065     1.0  0.76707  0.64554  0.66199  1.0000
  H   H4066     1.0  0.76558  0.62825  0.68619  1.0000
  H   H4067     1.0  0.75273  0.64336  0.69003  1.0000
  H   H4068     1.0  0.84153  0.63935  0.71565  1.0000
  H   H4069     1.0  0.84675  0.65310  0.74553  1.0000
  H   H4070     1.0  0.82872  0.62974  0.74450  1.0000
  H   H4071     1.0  0.76313  0.64232  0.82138  1.0000
  H   H4072     1.0  0.76010  0.66117  0.80381  1.0000
  H   H4073     1.0  0.83628  0.49882  0.84939  1.0000
  H   H4074     1.0  0.96278  0.50659  0.54829  1.0000
  H   H4075     1.0  0.83269  0.70645  0.92142  1.0000
  H   H4076     1.0  0.73245  0.54360  0.90323  1.0000
  H   H4077     1.0  0.73042  0.58488  0.96691  1.0000
  H   H4078     1.0  0.68964  0.51149  0.55093  1.0000
  H   H4079     1.0  0.67551  0.53319  0.56998  1.0000
  C   C2311     1.0  0.86616  0.65966  0.94275  1.0000
  H   H4080     1.0  0.93201  0.49439  0.52634  1.0000
  H   H4081     1.0  0.87470  0.69832  0.96840  1.0000
  C   C2312     1.0  0.92824  0.50662  0.53044  1.0000
  H   H4082     1.0  0.89066  0.51872  0.81023  1.0000
  H   H4083     1.0  0.75272  0.51767  0.94727  1.0000
  C   C2313     1.0  0.75148  0.53189  0.87048  1.0000
  H   H4084     1.0  0.95820  0.49639  0.88011  1.0000
  H   H4085     1.0  0.74798  0.56207  0.96048  1.0000
  H   H4086     1.0  0.83701  0.55242  0.67183  1.0000
  C   C2314     1.0  0.79149  0.52365  0.62215  1.0000
  N   N128      1.0  0.86162  0.67299  0.89779  1.0000
  C   C2315     1.0  0.84408  0.65564  0.89331  1.0000
  C   C2316     1.0  0.85620  0.68839  0.90866  1.0000
  C   C2317     1.0  0.87127  0.67846  0.87211  1.0000
  C   C2318     1.0  0.87497  0.66959  0.91723  1.0000
  C   C2319     1.0  0.65922  0.53341  0.51324  1.0000
  C   C2320     1.0  0.84706  0.63798  0.88332  1.0000
  C   C2321     1.0  0.88839  0.69741  0.87228  1.0000
  C   C2322     1.0  0.84438  0.69557  0.88996  1.0000
  H   H4087     1.0  0.80108  0.51905  0.61073  1.0000
  H   H4088     1.0  0.76178  0.52574  0.90692  1.0000
  H   H4089     1.0  0.77846  0.51137  0.62597  1.0000
  C   C2323     1.0  0.89712  0.70125  0.84536  1.0000
  H   H4090     1.0  0.83466  0.65817  0.87841  1.0000
  H   H4091     1.0  0.83571  0.65214  0.91134  1.0000
  H   H4092     1.0  0.84786  0.68363  0.92650  1.0000
  H   H4093     1.0  0.86887  0.70070  0.91527  1.0000
  H   H4094     1.0  0.86114  0.67883  0.85651  1.0000
  H   H4095     1.0  0.87638  0.66757  0.86524  1.0000
  H   H4096     1.0  0.88231  0.66125  0.90806  1.0000
  H   H4097     1.0  0.88640  0.68311  0.92323  1.0000
  H   H4098     1.0  0.97435  0.51890  0.83287  1.0000
  H   H4099     1.0  0.72048  0.50460  0.93757  1.0000
  H   H4100     1.0  0.85159  0.63978  0.86271  1.0000
  H   H4101     1.0  0.89118  0.67344  0.96772  1.0000
  H   H4102     1.0  0.89942  0.69733  0.88654  1.0000
  H   H4103     1.0  0.86067  0.50458  0.76567  1.0000
  H   H4104     1.0  0.85187  0.70122  0.87180  1.0000
  H   H4105     1.0  0.83072  0.68426  0.88454  1.0000
  H   H4106     1.0  0.88045  0.56572  0.71496  1.0000
  H   H4107     1.0  0.67954  0.50978  0.88990  1.0000
  H   H4108     1.0  0.95476  0.52045  0.90777  1.0000
  C   C2324     1.0  0.77831  0.54279  0.71816  1.0000
  C   C2325     1.0  0.80104  0.53323  0.64785  1.0000
  C   C2326     1.0  0.92098  0.54434  0.50795  1.0000
  H   H4109     1.0  0.69640  0.52485  0.95991  1.0000
  H   H4110     1.0  0.82414  0.61770  0.90454  1.0000
  H   H4111     1.0  0.73850  0.53237  0.86121  1.0000
  H   H4112     1.0  0.70989  0.51820  0.92110  1.0000
  C   C2327     1.0  0.71758  0.51760  0.93959  1.0000
  C   C2328     1.0  0.91329  0.55797  0.52020  1.0000
  H   H4113     1.0  0.70991  0.58104  0.94641  1.0000
  H   H4114     1.0  0.82742  0.72317  0.73221  1.0000
  H   H4115     1.0  0.81662  0.54580  0.72332  1.0000
  H   H4116     1.0  0.86467  0.72719  0.67630  1.0000
  H   H4117     1.0  0.85089  0.53848  0.72136  1.0000
  H   H4118     1.0  0.79337  0.50746  0.66934  1.0000
  H   H4119     1.0  0.82326  0.70118  0.76880  1.0000
  S   S515      1.0  0.92638  0.50880  0.72066  1.0000
  C   C2329     1.0  0.92547  0.54473  0.82974  1.0000
  H   H4120     1.0  0.78795  0.52150  0.73118  1.0000
  H   H4121     1.0  0.76436  0.54161  0.95653  1.0000
  H   H4122     1.0  0.85648  0.64498  0.93855  1.0000
  C   C2330     1.0  0.95867  0.51753  0.55732  1.0000
  C   C2331     1.0  0.83704  0.54045  0.68372  1.0000
  H   H4123     1.0  0.89864  0.55476  0.51309  1.0000
  C   C2332     1.0  0.85920  0.71919  0.65774  1.0000
  C   C2333     1.0  0.81606  0.70670  0.62408  1.0000
  H   H4124     1.0  0.83273  0.52730  0.83271  1.0000
  H   H4125     1.0  0.75545  0.52159  0.85944  1.0000
  H   H4126     1.0  0.84324  0.53267  0.67100  1.0000
  C   C2334     1.0  0.87379  0.71172  0.64881  1.0000
  C   C2335     1.0  0.79660  0.69183  0.62867  1.0000
  H   H4127     1.0  0.84942  0.72429  0.74638  1.0000
  H   H4128     1.0  0.81008  0.72733  0.64660  1.0000
  C   C2336     1.0  0.92772  0.51313  0.48346  1.0000
  H   H4129     1.0  0.84720  0.55994  0.71754  1.0000
  C   C2337     1.0  0.65881  0.55056  0.52153  1.0000
  C   C2338     1.0  0.83534  0.52596  0.85390  1.0000
  H   H4130     1.0  0.85783  0.63510  0.89518  1.0000
  H   H4131     1.0  0.73732  0.51195  0.89953  1.0000
  H   H4132     1.0  0.65044  0.51883  0.62569  1.0000
  H   H4133     1.0  0.84628  0.70695  0.66186  1.0000
  Fe  Fe258     1.0  0.94705  0.50759  0.75144  1.0000
  H   H4134     1.0  0.93569  0.54847  0.51491  1.0000
  H   H4135     1.0  0.82608  0.69953  0.62367  1.0000
  C   C2339     1.0  0.89378  0.51760  0.83140  1.0000
  C   C2340     1.0  0.81701  0.51240  0.70809  1.0000
  H   H4136     1.0  0.81758  0.62253  0.87203  1.0000
  H   H4137     1.0  0.83091  0.71551  0.88966  1.0000
  C   C2341     1.0  0.88082  0.50385  0.87330  1.0000
  H   H4138     1.0  0.68323  0.53296  0.90203  1.0000
  H   H4139     1.0  0.88678  0.72336  0.64312  1.0000
  H   H4140     1.0  0.87746  0.70426  0.66513  1.0000
  H   H4141     1.0  0.98026  0.53631  0.80786  1.0000
  H   H4142     1.0  0.79286  0.68095  0.61282  1.0000
  H   H4143     1.0  0.85333  0.72366  0.90696  1.0000
  H   H4144     1.0  0.81558  0.71254  0.60448  1.0000
  H   H4145     1.0  0.90805  0.53793  0.86332  1.0000
  H   H4146     1.0  0.90921  0.71493  0.84593  1.0000
  H   H4147     1.0  0.78130  0.66547  0.82323  1.0000
  H   H4148     1.0  0.84705  0.51132  0.87949  1.0000
  H   H4149     1.0  0.88917  0.65111  0.95374  1.0000
  C   C2342     1.0  0.95990  0.51037  0.91723  1.0000
  H   H4150     1.0  0.82209  0.51778  0.72826  1.0000
  H   H4151     1.0  0.92119  0.54642  0.48651  1.0000
  H   H4152     1.0  0.85902  0.61685  0.69981  1.0000
  H   H4153     1.0  0.72750  0.54727  0.97535  1.0000
  C   C2343     1.0  0.96844  0.50166  0.89680  1.0000
  H   H4154     1.0  0.73089  0.56887  0.92445  1.0000
  H   H4155     1.0  0.90215  0.69013  0.83954  1.0000
  H   H4156     1.0  0.92413  0.54500  0.80805  1.0000
  H   H4157     1.0  0.79103  0.53809  0.65777  1.0000
  C   C2344     1.0  0.85573  0.73197  0.63673  1.0000
  C   C2345     1.0  0.78802  0.52925  0.71292  1.0000
  C   C2346     1.0  0.90610  0.53761  0.84172  1.0000
  H   H4158     1.0  0.85971  0.49348  0.81112  1.0000
  C   C2347     1.0  0.72246  0.56052  0.94060  1.0000
  H   H4159     1.0  0.88329  0.51634  0.88615  1.0000
  H   H4160     1.0  0.77490  0.54811  0.69943  1.0000
  H   H4161     1.0  0.86322  0.52442  0.82526  1.0000
  C   C2348     1.0  0.80880  0.68409  0.73390  1.0000
  H   H4162     1.0  0.81333  0.68287  0.71381  1.0000
  H   H4163     1.0  0.83690  0.69028  0.75208  1.0000
  H   H4164     1.0  0.88675  0.70194  0.83039  1.0000
  H   H4165     1.0  0.69260  0.50430  0.58378  1.0000
  S   S516      1.0  0.93009  0.50976  0.78543  1.0000
  H   H4166     1.0  0.76299  0.54586  0.86901  1.0000
  H   H4167     1.0  0.67733  0.51860  0.50572  1.0000
  H   H4168     1.0  0.82567  0.73106  0.94468  1.0000
  H   H4169     1.0  0.70831  0.56632  0.97407  1.0000
  H   H4170     1.0  0.87196  0.56938  0.68315  1.0000
  H   H4171     1.0  0.75565  0.55369  0.91654  1.0000
  C   C2349     1.0  0.88124  0.65906  0.96224  1.0000
  H   H4172     1.0  0.94798  0.49944  0.92676  1.0000
  H   H4173     1.0  0.95122  0.49876  0.68032  1.0000
  H   H4174     1.0  0.93317  0.53567  0.83523  1.0000
  Fe  Fe259     1.0  0.84237  0.72989  0.83025  1.0000
  H   H4175     1.0  0.89948  0.54761  0.83622  1.0000
  C   C2350     1.0  0.82835  0.50082  0.69864  1.0000
  H   H4176     1.0  0.67685  0.49339  0.97384  1.0000
  H   H4177     1.0  0.95086  0.51190  0.57534  1.0000
  H   H4178     1.0  0.79920  0.69176  0.73192  1.0000
  C   C2351     1.0  0.67282  0.52005  0.89261  1.0000
  H   H4179     1.0  0.65021  0.52314  0.91293  1.0000
  H   H4180     1.0  0.94321  0.53454  0.54784  1.0000
  H   H4181     1.0  0.90287  0.50936  0.83213  1.0000
  C   C2352     1.0  0.82672  0.69713  0.74935  1.0000
  N   N129      1.0  0.87583  0.50758  0.84566  1.0000
  H   H4182     1.0  0.85810  0.66692  0.95252  1.0000
  H   H4183     1.0  0.80968  0.55223  0.69314  1.0000
  H   H4184     1.0  0.66068  0.50893  0.92911  1.0000
  H   H4185     1.0  0.84128  0.71233  0.71542  1.0000
  C   C2353     1.0  0.83673  0.71530  0.73479  1.0000
  C   C2354     1.0  0.94659  0.52341  0.53798  1.0000
  C   C2355     1.0  0.65576  0.51202  0.90983  1.0000
  H   H4186     1.0  0.85348  0.71505  0.96415  1.0000
  N   N130      1.0  0.84008  0.73860  0.64189  1.0000
  C   C2356     1.0  0.73387  0.55101  0.95598  1.0000
  C   C2357     1.0  0.80647  0.51968  0.66541  1.0000
  H   H4187     1.0  0.83121  0.60829  0.87624  1.0000
  H   H4188     1.0  0.91363  0.55717  0.54189  1.0000
  C   C2358     1.0  0.74305  0.54044  0.91530  1.0000
  H   H4189     1.0  0.87595  0.54814  0.68960  1.0000
  H   H4190     1.0  0.81517  0.65121  0.48772  1.0000
  N   N131      1.0  0.73585  0.53444  0.94236  1.0000
  H   H4191     1.0  0.82188  0.71572  0.66495  1.0000
  H   H4192     1.0  0.93377  0.55920  0.83703  1.0000
  H   H4193     1.0  0.87294  0.53351  0.85671  1.0000
  H   H4194     1.0  0.78587  0.69815  0.62832  1.0000
  C   C2359     1.0  0.80861  0.53981  0.70477  1.0000
  H   H4195     1.0  0.81469  0.51378  0.65314  1.0000
  H   H4196     1.0  0.84363  0.50945  0.69936  1.0000
  Fe  Fe260     1.0  0.90826  0.50881  0.75466  1.0000
  H   H4197     1.0  0.90540  0.52324  0.53558  1.0000
  C   C2360     1.0  0.84546  0.51256  0.85805  1.0000
  H   H4198     1.0  0.87456  0.65200  0.98031  1.0000
  H   H4199     1.0  0.87070  0.49887  0.92627  1.0000
  N   N132      1.0  0.81729  0.52809  0.69055  1.0000
  H   H4200     1.0  0.81359  0.54561  0.64288  1.0000
  H   H4201     1.0  0.78744  0.55485  0.73052  1.0000
  H   H4202     1.0  0.79638  0.68502  0.64775  1.0000
  H   H4203     1.0  0.92018  0.50331  0.54873  1.0000
  C   C2361     1.0  0.74841  0.52622  0.89909  1.0000
  H   H4204     1.0  0.94262  0.73749  0.66843  1.0000
  C   C2362     1.0  0.70319  0.51454  0.96154  1.0000
  H   H4205     1.0  0.97161  0.52979  0.56286  1.0000
  H   H4206     1.0  0.95534  0.52924  0.52091  1.0000
  H   H4207     1.0  0.65048  0.53557  0.58705  1.0000
  H   H4208     1.0  0.86823  0.70192  0.63180  1.0000
  H   H4209     1.0  0.80231  0.50240  0.71062  1.0000
  H   H4210     1.0  0.93963  0.52686  0.48510  1.0000
  C   C2363     1.0  0.75057  0.52958  0.95700  1.0000
  H   H4211     1.0  0.72385  0.60924  0.48802  1.0000
  C   C2364     1.0  0.82179  0.72230  0.64569  1.0000
  H   H4212     1.0  0.89492  0.52064  0.50390  1.0000
  C   C2365     1.0  0.90863  0.52373  0.51440  1.0000
  H   H4213     1.0  0.97354  0.51802  0.68283  1.0000
  S   S517      1.0  0.87260  0.73450  0.83193  1.0000
  C   C2366     1.0  0.65588  0.50409  0.57487  1.0000
  N   N133      1.0  0.91636  0.50900  0.50790  1.0000
  H   H4214     1.0  0.67713  0.52421  0.60190  1.0000
  C   C2367     1.0  0.67495  0.52057  0.58072  1.0000
  H   H4215     1.0  0.90360  0.73716  0.71831  1.0000
  H   H4216     1.0  0.86819  0.73672  0.97835  1.0000
  H   H4217     1.0  0.65092  0.49624  0.62222  1.0000
  H   H4218     1.0  0.82417  0.49551  0.67830  1.0000
  H   H4219     1.0  0.96398  0.50814  0.65099  1.0000
  H   H4220     1.0  0.96391  0.73304  0.66792  1.0000
  H   H4221     1.0  0.92802  0.49333  0.60903  1.0000
  H   H4222     1.0  0.97859  0.51281  0.80020  1.0000
  H   H4223     1.0  0.83663  0.74113  0.60015  1.0000
  H   H4224     1.0  0.84643  0.74249  0.68356  1.0000
  S   S518      1.0  0.97738  0.52668  0.74724  1.0000
  H   H4225     1.0  0.89285  0.72096  0.97574  1.0000
  H   H4226     1.0  0.65343  0.50311  0.55322  1.0000
  S   S519      1.0  0.78951  0.57806  0.97337  1.0000
  H   H4227     1.0  0.85079  0.74267  0.94467  1.0000
  H   H4228     1.0  0.72457  0.57819  0.48155  1.0000
  H   H4229     1.0  0.98099  0.51300  0.88953  1.0000
  Fe  Fe261     1.0  0.86078  0.77486  0.33393  1.0000
  S   S520      1.0  0.89151  0.77939  0.33778  1.0000
  S   S521      1.0  0.85464  0.80144  0.33649  1.0000
  H   H4230     1.0  0.66273  0.80002  0.40158  1.0000
  H   H4231     1.0  0.79306  0.78787  0.41913  1.0000
  Fe  Fe262     1.0  0.88146  0.75416  0.36355  1.0000
  H   H4232     1.0  0.82168  0.79954  0.46530  1.0000
  Fe  Fe263     1.0  0.88543  0.75949  0.30289  1.0000
  S   S522      1.0  0.90455  0.75952  0.26929  1.0000
  H   H4233     1.0  0.66290  0.83528  0.46307  1.0000
  H   H4234     1.0  0.66948  0.84060  0.35322  1.0000
  Fe  Fe264     1.0  0.93741  0.75778  0.08342  1.0000
  S   S523      1.0  0.92283  0.77800  0.08647  1.0000
  S   S524      1.0  0.96911  0.76457  0.09003  1.0000
  H   H4235     1.0  0.75506  0.83053  0.14880  1.0000
  H   H4236     1.0  0.69220  0.82415  0.98597  1.0000
  Fe  Fe265     1.0  0.90539  0.76254  0.05108  1.0000
  S   S525      1.0  0.89489  0.77593  0.01777  1.0000
  Fe  Fe266     1.0  0.90191  0.75589  0.11085  1.0000
  S   S526      1.0  0.88807  0.76244  0.14669  1.0000
  H   H4237     1.0  0.66002  0.87155  0.09976  1.0000
  C   C2368     1.0  0.68114  0.83413  0.31815  1.0000
  Fe  Fe267     1.0  0.73198  0.83593  0.38479  1.0000
  S   S527      1.0  0.74274  0.86696  0.38009  1.0000
  S   S528      1.0  0.70186  0.81686  0.39136  1.0000
  Fe  Fe268     1.0  0.77043  0.83434  0.37576  1.0000
  S   S529      1.0  0.78408  0.86565  0.37008  1.0000
  S   S530      1.0  0.78052  0.81009  0.37490  1.0000
  Fe  Fe269     1.0  0.76736  0.86767  0.40521  1.0000
  S   S531      1.0  0.77856  0.88973  0.43827  1.0000
  Fe  Fe270     1.0  0.75810  0.86233  0.34535  1.0000
  S   S532      1.0  0.75198  0.87581  0.30806  1.0000
  S   S533      1.0  0.75548  0.83676  0.41211  1.0000
  S   S534      1.0  0.74575  0.83104  0.34895  1.0000
  Fe  Fe271     1.0  0.76328  0.90127  0.15461  1.0000
  S   S535      1.0  0.74530  0.91818  0.15758  1.0000
  S   S536      1.0  0.77647  0.89081  0.18877  1.0000
  Fe  Fe272     1.0  0.75775  0.89758  0.09405  1.0000
  S   S537      1.0  0.73899  0.91388  0.09362  1.0000
  S   S538      1.0  0.76321  0.88103  0.05980  1.0000
  Fe  Fe273     1.0  0.76043  0.93391  0.12226  1.0000
  S   S539      1.0  0.76736  0.96589  0.12069  1.0000
  Fe  Fe274     1.0  0.72572  0.89701  0.12880  1.0000
  S   S540      1.0  0.69423  0.88422  0.13564  1.0000
  S   S541      1.0  0.77988  0.91821  0.12109  1.0000
  S   S542      1.0  0.74294  0.87950  0.12746  1.0000
  H   H4238     1.0  0.66772  0.78663  0.19819  1.0000
  H   H4239     1.0  0.95163  0.80479  0.22483  1.0000
  H   H4240     1.0  0.68756  0.84785  0.19098  1.0000
  C   C2369     1.0  0.81952  0.78034  0.28102  1.0000
  H   H4241     1.0  0.70390  0.85008  0.07082  1.0000
  C   C2370     1.0  0.68136  0.86004  0.14060  1.0000
  C   C2371     1.0  0.68856  0.84644  0.13451  1.0000
  C   C2372     1.0  0.67797  0.82741  0.13925  1.0000
  C   C2373     1.0  0.80461  0.78776  0.27224  1.0000
  H   H4242     1.0  0.69533  0.81914  0.18432  1.0000
  H   H4243     1.0  0.70228  0.85060  0.12623  1.0000
  H   H4244     1.0  0.84511  0.74771  0.07166  1.0000
  H   H4245     1.0  0.67776  0.82433  0.47484  1.0000
  C   C2374     1.0  0.76415  0.87021  0.00853  1.0000
  C   C2375     1.0  0.76262  0.88409  0.02534  1.0000
  C   C2376     1.0  0.76104  0.89994  0.01431  1.0000
  H   H4246     1.0  0.73209  0.82268  0.22947  1.0000
  H   H4247     1.0  0.65804  0.80866  0.08613  1.0000
  H   H4248     1.0  0.76533  0.85786  0.01683  1.0000
  H   H4249     1.0  0.75988  0.91074  0.02694  1.0000
  H   H4250     1.0  0.80955  0.96794  0.18932  1.0000
  C   C2377     1.0  0.75952  0.88030  0.27523  1.0000
  C   C2378     1.0  0.77379  0.87538  0.26531  1.0000
  C   C2379     1.0  0.77903  0.87910  0.23901  1.0000
  C   C2380     1.0  0.76985  0.88737  0.22210  1.0000
  C   C2381     1.0  0.75561  0.89231  0.23204  1.0000
  C   C2382     1.0  0.75059  0.88890  0.25845  1.0000
  H   H4251     1.0  0.78089  0.86896  0.27799  1.0000
  H   H4252     1.0  0.79042  0.87577  0.23171  1.0000
  H   H4253     1.0  0.74850  0.89884  0.21940  1.0000
  H   H4254     1.0  0.73963  0.89291  0.26592  1.0000
  C   C2383     1.0  0.68563  0.82683  0.39958  1.0000
  C   C2384     1.0  0.80044  0.79695  0.43615  1.0000
  H   H4255     1.0  0.89877  0.81408  0.40554  1.0000
  H   H4256     1.0  0.90100  0.78440  0.42023  1.0000
  C   C2385     1.0  0.67753  0.85379  0.40767  1.0000
  C   C2386     1.0  0.69092  0.84622  0.40189  1.0000
  H   H4257     1.0  0.68370  0.81700  0.13459  1.0000
  H   H4258     1.0  0.78994  0.79575  0.45121  1.0000
  H   H4259     1.0  0.68171  0.86883  0.40934  1.0000
  H   H4260     1.0  0.70530  0.85540  0.39906  1.0000
  C   C2387     1.0  0.83428  0.80360  0.34858  1.0000
  C   C2388     1.0  0.83388  0.82156  0.35146  1.0000
  C   C2389     1.0  0.81765  0.82388  0.35995  1.0000
  C   C2390     1.0  0.80160  0.80821  0.36527  1.0000
  C   C2391     1.0  0.80211  0.79027  0.36276  1.0000
  C   C2392     1.0  0.81839  0.78795  0.35457  1.0000
  H   H4261     1.0  0.84618  0.83375  0.34701  1.0000
  H   H4262     1.0  0.81754  0.83775  0.36234  1.0000
  H   H4263     1.0  0.78975  0.77807  0.36697  1.0000
  H   H4264     1.0  0.81853  0.77406  0.35248  1.0000
  C   C2393     1.0  0.89864  0.75895  0.23540  1.0000
  C   C2394     1.0  0.88535  0.76578  0.22600  1.0000
  C   C2395     1.0  0.88218  0.76653  0.19882  1.0000
  C   C2396     1.0  0.89207  0.76030  0.18071  1.0000
  H   H4265     1.0  0.70293  0.84374  0.45715  1.0000
  H   H4266     1.0  0.93545  0.82298  0.15024  1.0000
  H   H4267     1.0  0.87793  0.77103  0.23965  1.0000
  H   H4268     1.0  0.87221  0.77230  0.19177  1.0000
  H   H4269     1.0  0.86073  0.81755  0.39588  1.0000
  C   C2397     1.0  0.71716  0.82674  0.26180  1.0000
  C   C2398     1.0  0.89668  0.75665  0.43272  1.0000
  C   C2399     1.0  0.90002  0.77559  0.43686  1.0000
  C   C2400     1.0  0.90264  0.78322  0.46253  1.0000
  H   H4270     1.0  0.68042  0.83581  0.29669  1.0000
  H   H4271     1.0  0.91180  0.74708  0.17645  1.0000
  H   H4272     1.0  0.81654  0.98763  0.00207  1.0000
  H   H4273     1.0  0.80651  0.81174  0.42980  1.0000
  H   H4274     1.0  0.78708  0.82607  0.19876  1.0000
  C   C2401     1.0  0.93514  0.81089  0.13804  1.0000
  H   H4275     1.0  0.67851  0.87711  0.04613  1.0000
  H   H4276     1.0  0.65411  0.83357  0.24428  1.0000
  C   C2402     1.0  0.85618  0.79431  0.46021  1.0000
  N   N134      1.0  0.79410  0.81569  0.27824  1.0000
  C   C2403     1.0  0.77398  0.80215  0.27966  1.0000
  C   C2404     1.0  0.79705  0.83211  0.29648  1.0000
  C   C2405     1.0  0.81668  0.84825  0.29604  1.0000
  C   C2406     1.0  0.78784  0.83455  0.23982  1.0000
  C   C2407     1.0  0.76785  0.79320  0.30666  1.0000
  C   C2408     1.0  0.81740  0.86486  0.31314  1.0000
  C   C2409     1.0  0.79205  0.83909  0.21104  1.0000
  C   C2410     1.0  0.74790  0.77839  0.30508  1.0000
  H   H4277     1.0  0.76437  0.80933  0.27475  1.0000
  H   H4278     1.0  0.78610  0.83798  0.29280  1.0000
  H   H4279     1.0  0.79515  0.82745  0.31710  1.0000
  H   H4280     1.0  0.82043  0.85348  0.27602  1.0000
  H   H4281     1.0  0.82761  0.84344  0.30381  1.0000
  H   H4282     1.0  0.77240  0.82774  0.24130  1.0000
  H   H4283     1.0  0.79271  0.84802  0.25093  1.0000
  H   H4284     1.0  0.76790  0.80402  0.32107  1.0000
  H   H4285     1.0  0.80734  0.87087  0.30554  1.0000
  H   H4286     1.0  0.81398  0.86052  0.33362  1.0000
  H   H4287     1.0  0.83172  0.87597  0.31313  1.0000
  H   H4288     1.0  0.78475  0.84814  0.20392  1.0000
  H   H4289     1.0  0.80735  0.84673  0.20858  1.0000
  H   H4290     1.0  0.65517  0.78848  0.22658  1.0000
  H   H4291     1.0  0.73781  0.78467  0.29852  1.0000
  N   N135      1.0  0.84605  0.78603  0.43456  1.0000
  C   C2411     1.0  0.83692  0.76492  0.43462  1.0000
  C   C2412     1.0  0.69848  0.85954  0.20183  1.0000
  C   C2413     1.0  0.86007  0.79134  0.41295  1.0000
  H   H4292     1.0  0.70620  0.87528  0.00844  1.0000
  S   S543      1.0  0.85549  0.75657  0.29760  1.0000
  H   H4293     1.0  0.95199  0.79485  0.13035  1.0000
  H   H4294     1.0  0.83386  0.79085  0.27784  1.0000
  H   H4295     1.0  0.82861  0.75957  0.41603  1.0000
  H   H4296     1.0  0.82654  0.76008  0.45025  1.0000
  C   C2414     1.0  0.68021  0.81327  0.21979  1.0000
  H   H4297     1.0  0.85323  0.78456  0.39401  1.0000
  H   H4298     1.0  0.87125  0.78595  0.41707  1.0000
  H   H4299     1.0  0.97258  0.78245  0.14428  1.0000
  H   H4300     1.0  0.85719  0.75426  0.41862  1.0000
  C   C2415     1.0  0.84264  0.87036  0.00524  1.0000
  H   H4301     1.0  0.71221  0.83714  0.27054  1.0000
  H   H4302     1.0  0.70530  0.81307  0.25895  1.0000
  H   H4303     1.0  0.80877  0.77596  0.45282  1.0000
  H   H4304     1.0  0.71136  0.84159  0.31800  1.0000
  C   C2416     1.0  0.70917  0.85608  0.47053  1.0000
  H   H4305     1.0  0.69007  0.88642  0.07713  1.0000
  C   C2417     1.0  0.65349  0.82262  0.40899  1.0000
  H   H4306     1.0  0.93384  0.81422  0.11718  1.0000
  C   C2418     1.0  0.66690  0.81505  0.40331  1.0000
  H   H4307     1.0  0.75993  0.85631  0.46916  1.0000
  C   C2419     1.0  0.70114  0.84633  0.32750  1.0000
  H   H4308     1.0  0.83780  0.80920  0.42498  1.0000
  H   H4309     1.0  0.70887  0.86819  0.18775  1.0000
  C   C2420     1.0  0.72323  0.87167  0.45478  1.0000
  H   H4310     1.0  0.81817  0.77682  0.30204  1.0000
  C   C2421     1.0  0.80450  0.97910  0.18367  1.0000
  C   C2422     1.0  0.71108  0.85770  0.05338  1.0000
  C   C2423     1.0  0.89923  0.75321  0.48012  1.0000
  H   H4311     1.0  0.70463  0.86124  0.32259  1.0000
  C   C2424     1.0  0.72682  0.83356  0.23560  1.0000
  H   H4312     1.0  0.68487  0.84952  0.03231  1.0000
  C   C2425     1.0  0.97072  0.78045  0.16571  1.0000
  C   C2426     1.0  0.88817  0.81693  0.39315  1.0000
  H   H4313     1.0  0.97753  0.80525  0.09165  1.0000
  C   C2427     1.0  0.66672  0.84039  0.33169  1.0000
  H   H4314     1.0  0.65263  0.79779  0.05397  1.0000
  H   H4315     1.0  0.73301  0.86633  0.44517  1.0000
  H   H4316     1.0  0.70286  0.84527  0.34895  1.0000
  H   H4317     1.0  0.94918  0.76124  0.19050  1.0000
  H   H4318     1.0  0.94385  0.78036  0.21681  1.0000
  C   C2428     1.0  0.95230  0.76339  0.16955  1.0000
  H   H4319     1.0  0.87097  0.79530  0.46007  1.0000
  H   H4320     1.0  0.74699  0.76678  0.29143  1.0000
  C   C2429     1.0  0.81570  0.79083  0.44742  1.0000
  C   C2430     1.0  0.65878  0.84202  0.41119  1.0000
  H   H4321     1.0  0.82459  0.74309  0.03218  1.0000
  H   H4322     1.0  0.65563  0.81308  0.27992  1.0000
  H   H4323     1.0  0.65038  0.84467  0.28965  1.0000
  C   C2431     1.0  0.85060  0.75457  0.43758  1.0000
  C   C2432     1.0  0.83021  0.87170  0.98223  1.0000
  H   H4324     1.0  0.66721  0.85476  0.08341  1.0000
  H   H4325     1.0  0.72028  0.86423  0.23110  1.0000
  H   H4326     1.0  0.80559  0.78951  0.25077  1.0000
  C   C2433     1.0  0.68937  0.87205  0.21382  1.0000
  C   C2434     1.0  0.90471  0.75263  0.19013  1.0000
  H   H4327     1.0  0.67887  0.81942  0.32260  1.0000
  H   H4328     1.0  0.94608  0.78600  0.26434  1.0000
  H   H4329     1.0  0.72471  0.85608  0.05201  1.0000
  H   H4330     1.0  0.69804  0.83499  0.02617  1.0000
  H   H4331     1.0  0.80618  0.97508  0.10351  1.0000
  C   C2435     1.0  0.66016  0.82176  0.15022  1.0000
  H   H4332     1.0  0.67800  0.86391  0.22697  1.0000
  H   H4333     1.0  0.73946  0.84658  0.23979  1.0000
  H   H4334     1.0  0.71372  0.87279  0.05619  1.0000
  C   C2436     1.0  0.83133  0.79379  0.42755  1.0000
  H   H4335     1.0  0.94236  0.79286  0.17802  1.0000
  C   C2437     1.0  0.80361  0.98789  0.10443  1.0000
  H   H4336     1.0  0.64869  0.80204  0.32126  1.0000
  C   C2438     1.0  0.73068  0.82352  0.28161  1.0000
  H   H4337     1.0  0.72329  0.81840  0.30006  1.0000
  H   H4338     1.0  0.79339  0.80940  0.23681  1.0000
  H   H4339     1.0  0.97069  0.80044  0.26270  1.0000
  H   H4340     1.0  0.97980  0.78618  0.21376  1.0000
  H   H4341     1.0  0.95652  0.74636  0.13795  1.0000
  H   H4342     1.0  0.72723  0.83956  0.99083  1.0000
  N   N136      1.0  0.71489  0.83698  0.21397  1.0000
  C   C2439     1.0  0.97385  0.79685  0.20880  1.0000
  H   H4343     1.0  0.67132  0.81990  0.21013  1.0000
  C   C2440     1.0  0.90812  0.75216  0.21732  1.0000
  C   C2441     1.0  0.69910  0.81889  0.20545  1.0000
  H   H4344     1.0  0.90529  0.79790  0.46554  1.0000
  H   H4345     1.0  0.80678  0.98707  0.03392  1.0000
  N   N137      1.0  0.97219  0.79841  0.17926  1.0000
  C   C2442     1.0  0.69900  0.84958  0.02871  1.0000
  C   C2443     1.0  0.95306  0.80716  0.14259  1.0000
  C   C2444     1.0  0.70823  0.85197  0.22304  1.0000
  C   C2445     1.0  0.95902  0.78843  0.25333  1.0000
  H   H4346     1.0  0.65352  0.82996  0.05282  1.0000
  H   H4347     1.0  0.73150  0.88374  0.46782  1.0000
  C   C2446     1.0  0.66337  0.85434  0.15103  1.0000
  C   C2447     1.0  0.95582  0.79253  0.22483  1.0000
  H   H4348     1.0  0.95721  0.81683  0.18282  1.0000
  H   H4349     1.0  0.82560  0.74359  0.99009  1.0000
  H   H4350     1.0  0.68183  0.81766  0.24062  1.0000
  H   H4351     1.0  0.71598  0.87655  0.43922  1.0000
  S   S544      1.0  0.89343  0.74635  0.40086  1.0000
  H   H4352     1.0  0.94055  0.76545  0.15888  1.0000
  C   C2448     1.0  0.78597  0.98718  0.11173  1.0000
  C   C2449     1.0  0.66166  0.86590  0.08037  1.0000
  H   H4353     1.0  0.96224  0.77561  0.25456  1.0000
  H   H4354     1.0  0.87377  0.82103  0.42644  1.0000
  H   H4355     1.0  0.83958  0.85547  0.00986  1.0000
  C   C2450     1.0  0.76153  0.90210  0.98690  1.0000
  H   H4356     1.0  0.89401  0.83192  0.38780  1.0000
  C   C2451     1.0  0.95581  0.80376  0.17198  1.0000
  H   H4357     1.0  0.88543  0.80830  0.37490  1.0000
  H   H4358     1.0  0.82452  0.78783  0.40828  1.0000
  C   C2452     1.0  0.95355  0.74532  0.15910  1.0000
  H   H4359     1.0  0.66632  0.82758  0.00508  1.0000
  H   H4360     1.0  0.92261  0.79835  0.14281  1.0000
  H   H4361     1.0  0.70000  0.88395  0.22497  1.0000
  H   H4362     1.0  0.72259  0.86481  0.00438  1.0000
  H   H4363     1.0  0.85051  0.75515  0.99067  1.0000
  C   C2453     1.0  0.67646  0.88179  0.06599  1.0000
  H   H4364     1.0  0.73667  0.83847  0.13970  1.0000
  S   S545      1.0  0.85115  0.75063  0.36142  1.0000
  C   C2454     1.0  0.89649  0.74558  0.45447  1.0000
  H   H4365     1.0  0.81768  0.76740  0.26967  1.0000
  H   H4366     1.0  0.83983  0.87733  0.02283  1.0000
  H   H4367     1.0  0.77074  0.79075  0.26463  1.0000
  C   C2455     1.0  0.72738  0.84453  0.19094  1.0000
  H   H4368     1.0  0.79358  0.97900  0.19749  1.0000
  C   C2456     1.0  0.73812  0.83244  0.18113  1.0000
  H   H4369     1.0  0.75762  0.85404  0.15729  1.0000
  C   C2457     1.0  0.74738  0.83934  0.15513  1.0000
  H   H4370     1.0  0.73802  0.85882  0.19563  1.0000
  H   H4371     1.0  0.71900  0.84624  0.17383  1.0000
  H   H4372     1.0  0.69863  0.84732  0.23955  1.0000
  H   H4373     1.0  0.74294  0.83673  0.28593  1.0000
  H   H4374     1.0  0.77716  0.78634  0.31424  1.0000
  H   H4375     1.0  0.72856  0.81756  0.17833  1.0000
  H   H4376     1.0  0.74953  0.83332  0.19537  1.0000
  H   H4377     1.0  0.73556  0.81271  0.27410  1.0000
  C   C2458     1.0  0.79781  0.82182  0.25027  1.0000
  H   H4378     1.0  0.81314  0.82918  0.24734  1.0000
  H   H4379     1.0  0.82224  0.81616  0.28311  1.0000
  H   H4380     1.0  0.70396  0.80707  0.20671  1.0000
  C   C2459     1.0  0.70724  0.86154  0.00455  1.0000
  H   H4381     1.0  0.68704  0.86587  0.46373  1.0000
  H   H4382     1.0  0.67050  0.85525  0.32621  1.0000
  H   H4383     1.0  0.67225  0.89399  0.06434  1.0000
  C   C2460     1.0  0.80750  0.80657  0.28642  1.0000
  H   H4384     1.0  0.68321  0.87786  0.19797  1.0000
  C   C2461     1.0  0.87007  0.81265  0.40797  1.0000
  H   H4385     1.0  0.80703  0.80418  0.30783  1.0000
  H   H4386     1.0  0.79073  0.77684  0.27653  1.0000
  H   H4387     1.0  0.74388  0.77251  0.32481  1.0000
  H   H4388     1.0  0.79810  0.97575  0.16362  1.0000
  H   H4389     1.0  0.86205  0.76167  0.45213  1.0000
  C   C2462     1.0  0.66281  0.83196  0.98582  1.0000
  C   C2463     1.0  0.89594  0.77111  0.98391  1.0000
  H   H4390     1.0  0.67566  0.86242  0.98914  1.0000
  H   H4391     1.0  0.96478  0.81966  0.13570  1.0000
  H   H4392     1.0  0.85724  0.80903  0.46265  1.0000
  C   C2464     1.0  0.77119  0.88642  0.47122  1.0000
  H   H4393     1.0  0.64953  0.79441  0.46553  1.0000
  H   H4394     1.0  0.91823  0.74659  0.22441  1.0000
  H   H4395     1.0  0.91321  0.75510  0.98882  1.0000
  C   C2465     1.0  0.66937  0.79205  0.21867  1.0000
  H   H4396     1.0  0.65771  0.86477  0.15586  1.0000
  H   H4397     1.0  0.81545  0.86486  0.98814  1.0000
  H   H4398     1.0  0.67684  0.78494  0.23054  1.0000
  C   C2466     1.0  0.65285  0.83533  0.15594  1.0000
  H   H4399     1.0  0.66062  0.86867  0.47010  1.0000
  H   H4400     1.0  0.65297  0.86646  0.35035  1.0000
  H   H4401     1.0  0.85772  0.87742  0.00072  1.0000
  S   S546      1.0  0.92120  0.74368  0.04636  1.0000
  H   H4402     1.0  0.78119  0.91603  0.47994  1.0000
  C   C2467     1.0  0.69384  0.86242  0.48122  1.0000
  Fe  Fe275     1.0  0.85115  0.77174  0.82791  1.0000
  S   S547      1.0  0.88258  0.77881  0.82909  1.0000
  S   S548      1.0  0.84011  0.79486  0.82007  1.0000
  C   C2468     1.0  0.79628  0.83009  0.95237  1.0000
  C   C2469     1.0  0.85828  0.79510  0.50993  1.0000
  Fe  Fe276     1.0  0.87614  0.75745  0.86127  1.0000
  H   H4403     1.0  0.80883  0.84829  0.51619  1.0000
  Fe  Fe277     1.0  0.87590  0.75494  0.79966  1.0000
  S   S549      1.0  0.89374  0.75454  0.89650  1.0000
  C   C2470     1.0  0.70751  0.85152  0.56347  1.0000
  H   H4404     1.0  0.77865  0.86590  0.63774  1.0000
  Fe  Fe278     1.0  0.94204  0.76261  0.58644  1.0000
  S   S550      1.0  0.93004  0.78488  0.58524  1.0000
  S   S551      1.0  0.97333  0.76776  0.59258  1.0000
  C   C2471     1.0  0.77453  0.90214  0.48771  1.0000
  C   C2472     1.0  0.65565  0.84392  0.90852  1.0000
  Fe  Fe279     1.0  0.91094  0.76764  0.55237  1.0000
  S   S552      1.0  0.90523  0.78215  0.51632  1.0000
  Fe  Fe280     1.0  0.90847  0.76654  0.61263  1.0000
  S   S553      1.0  0.89991  0.77928  0.64814  1.0000
  H   H4405     1.0  0.83383  0.93022  0.57486  1.0000
  H   H4406     1.0  0.84713  0.77344  0.95213  1.0000
  Fe  Fe281     1.0  0.72744  0.83746  0.87859  1.0000
  S   S554      1.0  0.73650  0.86827  0.87413  1.0000
  S   S555      1.0  0.69795  0.81813  0.88742  1.0000
  Fe  Fe282     1.0  0.76736  0.83884  0.87455  1.0000
  S   S556      1.0  0.77943  0.87041  0.87019  1.0000
  S   S557      1.0  0.78197  0.81865  0.88339  1.0000
  Fe  Fe283     1.0  0.75999  0.87081  0.90253  1.0000
  S   S558      1.0  0.76483  0.89228  0.93587  1.0000
  Fe  Fe284     1.0  0.75465  0.86515  0.84193  1.0000
  S   S559      1.0  0.75074  0.88070  0.80553  1.0000
  S   S560      1.0  0.74981  0.84004  0.90867  1.0000
  S   S561      1.0  0.74375  0.83363  0.84477  1.0000
  Fe  Fe285     1.0  0.76230  0.89847  0.65372  1.0000
  S   S562      1.0  0.74489  0.91544  0.66008  1.0000
  S   S563      1.0  0.77668  0.88890  0.68684  1.0000
  Fe  Fe286     1.0  0.75415  0.89589  0.59377  1.0000
  S   S564      1.0  0.73600  0.91273  0.59696  1.0000
  S   S565      1.0  0.75549  0.87833  0.55808  1.0000
  Fe  Fe287     1.0  0.75893  0.93180  0.62471  1.0000
  S   S566      1.0  0.76900  0.96400  0.62985  1.0000
  Fe  Fe288     1.0  0.72402  0.89490  0.63197  1.0000
  S   S567      1.0  0.69292  0.88175  0.64108  1.0000
  S   S568      1.0  0.77766  0.91566  0.61978  1.0000
  S   S569      1.0  0.74088  0.87724  0.62743  1.0000
  H   H4407     1.0  0.67503  0.87184  0.51652  1.0000
  H   H4408     1.0  0.80038  0.97231  0.59368  1.0000
  H   H4409     1.0  0.98026  0.80792  0.59685  1.0000
  C   C2473     1.0  0.67861  0.82521  0.64734  1.0000
  C   C2474     1.0  0.68887  0.84437  0.64285  1.0000
  C   C2475     1.0  0.68051  0.85741  0.64612  1.0000
  C   C2476     1.0  0.80866  0.87605  0.52399  1.0000
  H   H4410     1.0  0.71706  0.85249  0.48656  1.0000
  H   H4411     1.0  0.68524  0.81527  0.64481  1.0000
  H   H4412     1.0  0.70322  0.84897  0.63680  1.0000
  S   S570      1.0  0.84524  0.75169  0.86149  1.0000
  H   H4413     1.0  0.81559  0.90944  0.54073  1.0000
  C   C2477     1.0  0.76435  0.87224  0.98110  1.0000
  C   C2478     1.0  0.75745  0.86645  0.50795  1.0000
  C   C2479     1.0  0.76080  0.88214  0.52443  1.0000
  C   C2480     1.0  0.76920  0.90004  0.51411  1.0000
  H   H4414     1.0  0.66882  0.79386  0.84210  1.0000
  C   C2481     1.0  0.84198  0.90098  0.60169  1.0000
  H   H4415     1.0  0.75101  0.85253  0.51571  1.0000
  H   H4416     1.0  0.77183  0.91226  0.52648  1.0000
  H   H4417     1.0  0.81204  0.86305  0.60846  1.0000
  C   C2482     1.0  0.75771  0.88187  0.77246  1.0000
  C   C2483     1.0  0.77119  0.87518  0.76407  1.0000
  C   C2484     1.0  0.77676  0.87729  0.73778  1.0000
  C   C2485     1.0  0.76866  0.88570  0.71947  1.0000
  C   C2486     1.0  0.75483  0.89189  0.72773  1.0000
  C   C2487     1.0  0.74964  0.89027  0.75411  1.0000
  H   H4418     1.0  0.77756  0.86873  0.77794  1.0000
  H   H4419     1.0  0.78745  0.87239  0.73163  1.0000
  H   H4420     1.0  0.74827  0.89813  0.71385  1.0000
  H   H4421     1.0  0.73926  0.89554  0.76038  1.0000
  C   C2488     1.0  0.68224  0.82863  0.89597  1.0000
  H   H4422     1.0  0.85441  0.77876  0.63070  1.0000
  C   C2489     1.0  0.95969  0.77653  0.66691  1.0000
  H   H4423     1.0  0.86938  0.91701  0.58587  1.0000
  C   C2490     1.0  0.67166  0.85446  0.89483  1.0000
  C   C2491     1.0  0.68481  0.84674  0.88824  1.0000
  H   H4424     1.0  0.66310  0.81491  0.74740  1.0000
  H   H4425     1.0  0.79859  0.93515  0.74090  1.0000
  H   H4426     1.0  0.67372  0.86851  0.88889  1.0000
  H   H4427     1.0  0.69674  0.85472  0.87689  1.0000
  C   C2492     1.0  0.82363  0.80095  0.83780  1.0000
  C   C2493     1.0  0.81734  0.81445  0.82753  1.0000
  C   C2494     1.0  0.80443  0.81990  0.84100  1.0000
  C   C2495     1.0  0.79778  0.81199  0.86506  1.0000
  C   C2496     1.0  0.80417  0.79860  0.87544  1.0000
  C   C2497     1.0  0.81696  0.79303  0.86186  1.0000
  H   H4428     1.0  0.82245  0.82069  0.80897  1.0000
  H   H4429     1.0  0.79969  0.83024  0.83280  1.0000
  H   H4430     1.0  0.79914  0.79241  0.89405  1.0000
  H   H4431     1.0  0.82171  0.78269  0.87004  1.0000
  C   C2498     1.0  0.89266  0.75725  0.73234  1.0000
  C   C2499     1.0  0.88780  0.77231  0.72540  1.0000
  C   C2500     1.0  0.89030  0.77897  0.69961  1.0000
  C   C2501     1.0  0.89732  0.77047  0.68038  1.0000
  H   H4432     1.0  0.81566  0.90951  0.90291  1.0000
  H   H4433     1.0  0.71313  0.91133  0.93451  1.0000
  H   H4434     1.0  0.88256  0.77910  0.74008  1.0000
  H   H4435     1.0  0.88684  0.79087  0.69460  1.0000
  C   C2502     1.0  0.90547  0.76013  0.97499  1.0000
  H   H4436     1.0  0.66564  0.84884  0.71422  1.0000
  C   C2503     1.0  0.89460  0.76162  0.92987  1.0000
  C   C2504     1.0  0.88543  0.77298  0.93868  1.0000
  C   C2505     1.0  0.66180  0.85105  0.65397  1.0000
  S   S571      1.0  0.92421  0.74632  0.55177  1.0000
  H   H4437     1.0  0.86220  0.79135  0.58674  1.0000
  H   H4438     1.0  0.69580  0.83393  0.51461  1.0000
  H   H4439     1.0  0.80281  0.87501  0.64967  1.0000
  H   H4440     1.0  0.85246  0.78714  0.52779  1.0000
  N   N138      1.0  0.80226  0.96025  0.69886  1.0000
  C   C2506     1.0  0.80109  0.94261  0.68461  1.0000
  C   C2507     1.0  0.78264  0.95937  0.70314  1.0000
  C   C2508     1.0  0.77560  0.82093  0.95912  1.0000
  C   C2509     1.0  0.81338  0.96356  0.72451  1.0000
  H   H4441     1.0  0.83667  0.89079  0.61761  1.0000
  C   C2510     1.0  0.82003  0.94295  0.67434  1.0000
  H   H4442     1.0  0.79166  0.84793  0.92260  1.0000
  C   C2511     1.0  0.77039  0.94388  0.72131  1.0000
  C   C2512     1.0  0.75060  0.94382  0.72277  1.0000
  C   C2513     1.0  0.68817  0.84284  0.52099  1.0000
  H   H4443     1.0  0.80760  0.89563  0.61218  1.0000
  H   H4444     1.0  0.83184  0.95036  0.68832  1.0000
  H   H4445     1.0  0.79123  0.93981  0.66736  1.0000
  H   H4446     1.0  0.79481  0.93009  0.69683  1.0000
  H   H4447     1.0  0.77491  0.95774  0.68398  1.0000
  H   H4448     1.0  0.84946  0.77015  0.48639  1.0000
  C   C2514     1.0  0.89967  0.74873  0.71307  1.0000
  H   H4449     1.0  0.89896  0.74447  0.49664  1.0000
  C   C2515     1.0  0.65322  0.82589  0.91636  1.0000
  H   H4450     1.0  0.69060  0.88425  0.95609  1.0000
  H   H4451     1.0  0.80866  0.98367  0.51935  1.0000
  N   N139      1.0  0.67924  0.84856  0.49784  1.0000
  H   H4452     1.0  0.82305  0.95049  0.65553  1.0000
  C   C2516     1.0  0.81969  0.92329  0.66941  1.0000
  H   H4453     1.0  0.82196  0.76100  0.95026  1.0000
  H   H4454     1.0  0.81749  0.74855  0.67972  1.0000
  H   H4455     1.0  0.76912  0.92989  0.71420  1.0000
  H   H4456     1.0  0.77643  0.94638  0.74156  1.0000
  H   H4457     1.0  0.74213  0.93246  0.73577  1.0000
  H   H4458     1.0  0.75106  0.95737  0.73093  1.0000
  H   H4459     1.0  0.82820  0.76770  0.65806  1.0000
  H   H4460     1.0  0.83712  0.77946  0.58891  1.0000
  H   H4461     1.0  0.90753  0.74867  0.67273  1.0000
  H   H4462     1.0  0.67794  0.83063  0.78246  1.0000
  H   H4463     1.0  0.84023  0.90129  0.55915  1.0000
  H   H4464     1.0  0.87345  0.79761  0.50952  1.0000
  H   H4465     1.0  0.80821  0.91538  0.65525  1.0000
  C   C2517     1.0  0.83100  0.75957  0.67422  1.0000
  H   H4466     1.0  0.66535  0.82115  0.83722  1.0000
  H   H4467     1.0  0.85163  0.78473  0.69301  1.0000
  N   N140      1.0  0.69156  0.85017  0.73350  1.0000
  C   C2518     1.0  0.69761  0.83656  0.71859  1.0000
  C   C2519     1.0  0.94592  0.78193  0.75014  1.0000
  C   C2520     1.0  0.69959  0.86875  0.71995  1.0000
  C   C2521     1.0  0.69903  0.85307  0.76146  1.0000
  C   C2522     1.0  0.69311  0.83548  0.77861  1.0000
  C   C2523     1.0  0.71908  0.84192  0.71641  1.0000
  C   C2524     1.0  0.69381  0.88459  0.73066  1.0000
  H   H4468     1.0  0.83965  0.91374  0.60740  1.0000
  H   H4469     1.0  0.65040  0.75503  0.86720  1.0000
  C   C2525     1.0  0.70352  0.83985  0.80521  1.0000
  C   C2526     1.0  0.72321  0.82637  0.70257  1.0000
  C   C2527     1.0  0.70091  0.90172  0.71324  1.0000
  H   H4470     1.0  0.69155  0.83467  0.69828  1.0000
  H   H4471     1.0  0.69186  0.82240  0.72705  1.0000
  H   H4472     1.0  0.95129  0.79625  0.75906  1.0000
  H   H4473     1.0  0.82415  0.88268  0.52304  1.0000
  H   H4474     1.0  0.69576  0.86679  0.69862  1.0000
  H   H4475     1.0  0.71513  0.87455  0.72130  1.0000
  H   H4476     1.0  0.71461  0.85986  0.76215  1.0000
  H   H4477     1.0  0.69433  0.86309  0.77195  1.0000
  H   H4478     1.0  0.69617  0.82399  0.76931  1.0000
  H   H4479     1.0  0.69374  0.89834  0.69366  1.0000
  H   H4480     1.0  0.72549  0.85468  0.70463  1.0000
  H   H4481     1.0  0.72622  0.84435  0.73598  1.0000
  C   C2528     1.0  0.81057  0.88925  0.93414  1.0000
  H   H4482     1.0  0.81267  0.95695  0.77879  1.0000
  C   C2529     1.0  0.82120  0.95104  0.76723  1.0000
  H   H4483     1.0  0.80246  0.88515  0.51399  1.0000
  C   C2530     1.0  0.70813  0.86717  0.95753  1.0000
  H   H4484     1.0  0.70112  0.85139  0.81562  1.0000
  H   H4485     1.0  0.69853  0.82725  0.81760  1.0000
  H   H4486     1.0  0.71881  0.84394  0.80264  1.0000
  H   H4487     1.0  0.73861  0.83072  0.70082  1.0000
  H   H4488     1.0  0.71784  0.81326  0.71388  1.0000
  H   H4489     1.0  0.71662  0.82365  0.68258  1.0000
  H   H4490     1.0  0.76566  0.86153  0.96850  1.0000
  H   H4491     1.0  0.70008  0.88919  0.75055  1.0000
  H   H4492     1.0  0.71628  0.90644  0.71079  1.0000
  H   H4493     1.0  0.65795  0.84974  0.52401  1.0000
  H   H4494     1.0  0.84152  0.76533  0.71479  1.0000
  C   C2531     1.0  0.96842  0.76224  0.67461  1.0000
  C   C2532     1.0  0.95630  0.80653  0.67199  1.0000
  H   H4495     1.0  0.80562  0.86037  0.48756  1.0000
  H   H4496     1.0  0.69530  0.86888  0.54475  1.0000
  C   C2533     1.0  0.94576  0.78281  0.72028  1.0000
  C   C2534     1.0  0.95885  0.81307  0.64319  1.0000
  H   H4497     1.0  0.74359  0.94138  0.70308  1.0000
  C   C2535     1.0  0.80078  0.84972  0.94048  1.0000
  C   C2536     1.0  0.83854  0.77283  0.69788  1.0000
  C   C2537     1.0  0.80022  0.98543  0.60093  1.0000
  C   C2538     1.0  0.94664  0.82408  0.63636  1.0000
  H   H4498     1.0  0.76660  0.81833  0.94106  1.0000
  H   H4499     1.0  0.77290  0.80723  0.96837  1.0000
  H   H4500     1.0  0.82135  0.93922  0.72925  1.0000
  H   H4501     1.0  0.86980  0.91184  0.62013  1.0000
  H   H4502     1.0  0.95971  0.81930  0.68465  1.0000
  H   H4503     1.0  0.94100  0.79830  0.67390  1.0000
  H   H4504     1.0  0.93998  0.76820  0.71253  1.0000
  H   H4505     1.0  0.85072  0.76842  0.57197  1.0000
  H   H4506     1.0  0.83588  0.76133  0.92233  1.0000
  H   H4507     1.0  0.85921  0.76206  0.66485  1.0000
  H   H4508     1.0  0.93612  0.78979  0.71451  1.0000
  C   C2539     1.0  0.90226  0.77208  0.48431  1.0000
  H   H4509     1.0  0.95480  0.80092  0.62950  1.0000
  C   C2540     1.0  0.86314  0.90614  0.60074  1.0000
  H   H4510     1.0  0.85656  0.85851  0.91739  1.0000
  H   H4511     1.0  0.87778  0.77808  0.92479  1.0000
  H   H4512     1.0  0.79907  0.82043  0.93848  1.0000
  H   H4513     1.0  0.76072  0.91463  0.97865  1.0000
  H   H4514     1.0  0.67837  0.88009  0.73157  1.0000
  H   H4515     1.0  0.69788  0.91337  0.72218  1.0000
  C   C2541     1.0  0.66654  0.85781  0.50777  1.0000
  H   H4516     1.0  0.87908  0.78656  0.97219  1.0000
  H   H4517     1.0  0.82657  0.97829  0.67823  1.0000
  H   H4518     1.0  0.81763  0.91551  0.68801  1.0000
  H   H4519     1.0  0.78299  0.97267  0.71207  1.0000
  H   H4520     1.0  0.94862  0.82842  0.61563  1.0000
  H   H4521     1.0  0.93158  0.81529  0.63876  1.0000
  H   H4522     1.0  0.79595  0.88139  0.92686  1.0000
  H   H4523     1.0  0.80463  0.83114  0.97070  1.0000
  H   H4524     1.0  0.78678  0.86885  0.55221  1.0000
  H   H4525     1.0  0.83407  0.87889  0.57278  1.0000
  H   H4526     1.0  0.65264  0.88673  0.50439  1.0000
  H   H4527     1.0  0.79666  0.93574  0.56628  1.0000
  H   H4528     1.0  0.82432  0.75162  0.61919  1.0000
  H   H4529     1.0  0.66556  0.85006  0.74894  1.0000
  H   H4530     1.0  0.81582  0.94235  0.54385  1.0000
  H   H4531     1.0  0.66466  0.80450  0.91694  1.0000
  H   H4532     1.0  0.71656  0.86343  0.57618  1.0000
  C   C2542     1.0  0.84512  0.75069  0.66641  1.0000
  C   C2543     1.0  0.83414  0.86260  0.95715  1.0000
  H   H4533     1.0  0.86926  0.74410  0.63524  1.0000
  H   H4534     1.0  0.78789  0.85394  0.59728  1.0000
  H   H4535     1.0  0.80679  0.91563  0.93234  1.0000
  H   H4536     1.0  0.67711  0.83381  0.53401  1.0000
  C   C2544     1.0  0.65763  0.78421  0.85439  1.0000
  C   C2545     1.0  0.90195  0.75525  0.68721  1.0000
  C   C2546     1.0  0.65154  0.83189  0.65853  1.0000
  H   H4537     1.0  0.94422  0.76988  0.66911  1.0000
  H   H4538     1.0  0.80876  0.97223  0.73807  1.0000
  H   H4539     1.0  0.69500  0.84324  0.57473  1.0000
  H   H4540     1.0  0.73430  0.81662  0.96395  1.0000
  H   H4541     1.0  0.78652  0.85024  0.50932  1.0000
  H   H4542     1.0  0.66025  0.81610  0.71276  1.0000
  C   C2547     1.0  0.66652  0.81834  0.91032  1.0000
  C   C2548     1.0  0.67036  0.84373  0.73236  1.0000
  H   H4543     1.0  0.82851  0.97209  0.72157  1.0000
  H   H4544     1.0  0.69299  0.82980  0.95248  1.0000
  H   H4545     1.0  0.86626  0.89359  0.59594  1.0000
  H   H4546     1.0  0.71310  0.81150  0.94448  1.0000
  H   H4547     1.0  0.67315  0.85283  0.95705  1.0000
  H   H4548     1.0  0.70365  0.86056  0.93773  1.0000
  N   N141      1.0  0.69806  0.85350  0.97840  1.0000
  H   H4549     1.0  0.79413  0.90342  0.55715  1.0000
  H   H4550     1.0  0.83321  0.92422  0.66127  1.0000
  H   H4551     1.0  0.73055  0.90111  0.93537  1.0000
  H   H4552     1.0  0.86327  0.85444  0.87172  1.0000
  H   H4553     1.0  0.68269  0.75585  0.86873  1.0000
  H   H4554     1.0  0.97358  0.82234  0.63956  1.0000
  C   C2549     1.0  0.68029  0.76914  0.86847  1.0000
  C   C2550     1.0  0.70182  0.85905  0.53853  1.0000
  C   C2551     1.0  0.65196  0.81596  0.49498  1.0000
  C   C2552     1.0  0.78640  0.98526  0.61830  1.0000
  H   H4555     1.0  0.95472  0.77432  0.75719  1.0000
  S   S572      1.0  0.89132  0.74918  0.76492  1.0000
  H   H4556     1.0  0.70099  0.87596  0.49207  1.0000
  H   H4557     1.0  0.81450  0.92345  0.59686  1.0000
  H   H4558     1.0  0.79030  0.85015  0.64477  1.0000
  C   C2553     1.0  0.65867  0.82228  0.73180  1.0000
  H   H4559     1.0  0.78666  0.88436  0.59389  1.0000
  C   C2554     1.0  0.81172  0.97647  0.68101  1.0000
  H   H4560     1.0  0.95057  0.83683  0.64905  1.0000
  C   C2555     1.0  0.70559  0.88618  0.95756  1.0000
  C   C2556     1.0  0.96582  0.79347  0.71033  1.0000
  N   N142      1.0  0.82102  0.86067  0.93398  1.0000
  H   H4561     1.0  0.80461  0.86038  0.55954  1.0000
  C   C2557     1.0  0.82348  0.87974  0.92346  1.0000
  C   C2558     1.0  0.82598  0.84995  0.91247  1.0000
  H   H4562     1.0  0.93142  0.77435  0.75681  1.0000
  H   H4563     1.0  0.82113  0.93826  0.77710  1.0000
  C   C2559     1.0  0.90482  0.75546  0.94814  1.0000
  C   C2560     1.0  0.84621  0.85898  0.90223  1.0000
  H   H4564     1.0  0.82800  0.77856  0.70377  1.0000
  H   H4565     1.0  0.85663  0.80875  0.51105  1.0000
  H   H4566     1.0  0.69168  0.77960  0.85741  1.0000
  H   H4567     1.0  0.81914  0.95337  0.57585  1.0000
  C   C2561     1.0  0.84852  0.84832  0.87808  1.0000
  C   C2562     1.0  0.80199  0.85756  0.50842  1.0000
  H   H4568     1.0  0.71551  0.84268  0.55864  1.0000
  H   H4569     1.0  0.83829  0.88974  0.92643  1.0000
  H   H4570     1.0  0.82080  0.87888  0.90183  1.0000
  H   H4571     1.0  0.81611  0.84786  0.89536  1.0000
  H   H4572     1.0  0.82435  0.83572  0.91876  1.0000
  H   H4573     1.0  0.91221  0.74691  0.94150  1.0000
  H   H4574     1.0  0.97454  0.78619  0.71865  1.0000
  C   C2563     1.0  0.71524  0.89790  0.93430  1.0000
  S   S573      1.0  0.88807  0.75162  0.57969  1.0000
  C   C2564     1.0  0.65299  0.86096  0.48712  1.0000
  C   C2565     1.0  0.80227  0.87299  0.55275  1.0000
  H   H4575     1.0  0.80489  0.97347  0.66109  1.0000
  H   H4576     1.0  0.84976  0.87375  0.89670  1.0000
  H   H4577     1.0  0.68099  0.77434  0.88897  1.0000
  H   H4578     1.0  0.72841  0.84516  0.95651  1.0000
  H   H4579     1.0  0.72353  0.87085  0.95922  1.0000
  C   C2566     1.0  0.85368  0.76881  0.61454  1.0000
  C   C2567     1.0  0.83556  0.76079  0.94404  1.0000
  H   H4580     1.0  0.83285  0.78104  0.48732  1.0000
  N   N143      1.0  0.96760  0.79530  0.68102  1.0000
  H   H4581     1.0  0.66050  0.79089  0.87409  1.0000
  C   C2568     1.0  0.65991  0.81885  0.65526  1.0000
  C   C2569     1.0  0.88621  0.77778  0.96554  1.0000
  H   H4582     1.0  0.65519  0.86100  0.65661  1.0000
  C   C2570     1.0  0.81292  0.94592  0.73944  1.0000
  H   H4583     1.0  0.84502  0.83331  0.88243  1.0000
  H   H4584     1.0  0.83926  0.84930  0.86166  1.0000
  N   N144      1.0  0.81157  0.88929  0.57170  1.0000
  C   C2571     1.0  0.80110  0.88461  0.59692  1.0000
  C   C2572     1.0  0.80930  0.90630  0.56030  1.0000
  S   S574      1.0  0.84514  0.74910  0.79666  1.0000
  C   C2573     1.0  0.83207  0.89235  0.57511  1.0000
  C   C2574     1.0  0.79876  0.86546  0.60876  1.0000
  H   H4585     1.0  0.96154  0.77828  0.64547  1.0000
  C   C2575     1.0  0.81832  0.92495  0.57606  1.0000
  C   C2576     1.0  0.81208  0.93998  0.56474  1.0000
  C   C2577     1.0  0.79227  0.86412  0.63694  1.0000
  H   H4586     1.0  0.83093  0.91800  0.93174  1.0000
  H   H4587     1.0  0.71479  0.86707  0.52800  1.0000
  H   H4588     1.0  0.66097  0.75993  0.83569  1.0000
  H   H4589     1.0  0.83590  0.96137  0.76687  1.0000
  C   C2578     1.0  0.81645  0.90933  0.92464  1.0000
  H   H4590     1.0  0.70927  0.89032  0.91555  1.0000
  C   C2579     1.0  0.84792  0.78383  0.48565  1.0000
  H   H4591     1.0  0.86745  0.76759  0.61361  1.0000
  C   C2580     1.0  0.76330  0.88835  0.97014  1.0000
  C   C2581     1.0  0.66113  0.76574  0.85566  1.0000
  H   H4592     1.0  0.84881  0.87137  0.95215  1.0000
  H   H4593     1.0  0.65026  0.81248  0.80861  1.0000
  H   H4594     1.0  0.65641  0.84573  0.81881  1.0000
  C   C2582     1.0  0.85063  0.77748  0.58895  1.0000
  H   H4595     1.0  0.83449  0.84872  0.96208  1.0000
  H   H4596     1.0  0.97143  0.80766  0.71984  1.0000
  C   C2583     1.0  0.72001  0.83542  0.97140  1.0000
  H   H4597     1.0  0.64890  0.78321  0.80489  1.0000
  H   H4598     1.0  0.79566  0.85749  0.95462  1.0000
  H   H4599     1.0  0.95754  0.74389  0.64036  1.0000
  H   H4600     1.0  0.81052  0.88965  0.95576  1.0000
  C   C2584     1.0  0.65075  0.81696  0.82934  1.0000
  H   H4601     1.0  0.65744  0.80928  0.51052  1.0000
  C   C2585     1.0  0.83773  0.74941  0.61850  1.0000
  H   H4602     1.0  0.71195  0.89449  0.97561  1.0000
  C   C2586     1.0  0.71971  0.81605  0.96426  1.0000
  H   H4603     1.0  0.66187  0.82085  0.97125  1.0000
  H   H4604     1.0  0.77172  0.82992  0.97298  1.0000
  H   H4605     1.0  0.96861  0.76034  0.69605  1.0000
  S   S575      1.0  0.92124  0.74502  0.61544  1.0000
  H   H4606     1.0  0.71188  0.80560  0.97884  1.0000
  H   H4607     1.0  0.82324  0.98656  0.49136  1.0000
  C   C2587     1.0  0.69982  0.83512  0.97199  1.0000
  C   C2588     1.0  0.67761  0.85111  0.97741  1.0000
  H   H4608     1.0  0.83350  0.88679  0.97910  1.0000
  S   S576      1.0  0.64792  0.79470  0.66191  1.0000
  C   C2589     1.0  0.95737  0.74301  0.66204  1.0000
  C   C2590     1.0  0.83782  0.74295  0.95315  1.0000
  C   C2591     1.0  0.76254  0.86854  0.48152  1.0000
  C   C2592     1.0  0.66839  0.83134  0.48139  1.0000
