data_image0
_chemical_formula_structural       FeSHFeS2FeSFeHS2FeS2FeSHFe2S4HC2H4C5H3C6H4NC6H14CH4NC2HC6H5CH4CH3CH5C2H5SH5C2HCH6CH2SH2CH2CHC2HC2H3CH4CH2CH2CH2CHCHCH5C3H2C3H4NCH4CNCH3C2HCHCHC2H8C3H3C2H3CHCH3C2H2SHCH5FeSHFeS2FeSFeS3H2CH3CH2C6H6CH2CH3CH2NC3H4CH3C3H3CH2CH2CSHCH4C2H2SC3H2CHFeS2FeSHFeHFeHS2CHC2H2C2H4CNC2HC2HC4H10CH10CH2C3H4SCH4C2FeSCFeS2FeHFeS3CHC2SHC3H3C7H4CH8C3H2NH2CSHCHCHC2H3CH7C2H2CH5C2H4CNH2CHCH2CH2C6H6FeS2FeSCFeSFeS3HCHCHCH4CHC5H3C3H2NC9H20CH3CHCHCH13SCH4NH4CH3CHCH2NC2H4CH2C2HCH4C2H4CH3C2HCHC4HC2HCHCH4C2HCH9C2NHFeS2FeSFeSFeHS2CH2C6H6C2H5CH4NHCH3CH3CH2CH7C2NC10H7CH4CSH5CFeSFeS2FeSFeS3H3CHC7H5CHCH4NCH2CH2C2H3CH3CH4C2H2C3NCH3CH4C2H4CHCH5NC3H3C3HCH6CH2CH9C3HC2HCHSH2CH3CHCH4CHC7HSHCH3CHCNH2CH7CH2C3H5CH7C3HCH7C2H3CH5SCH4CH2CH2FeS2FeS2FeSFeHS2FeS2FeSFe2CS2H4CH2C3H2C2HCHNHC6H4C6H8CH3C2H5C4H3NHCH3CSH7NCH2CH2CH3CH3C3H2CH2C2HC2H3CH3CH2CHSH4SCHCH2CH2CH2C3H5CH3CHC2HCH3NC3H4CH2CHCH10CFeSHFeS2FeSFeCS2FeS2FeS2FeSFeS2CH3C2HCHC6H4SCH4C2HCHNCHC2HC3HCH5CH6SH2CH3CHCH2C3HCHSH3CH2CHCH4CH5SHC2H3CH8C2HC3HNH3C5H6CHCH6
_chemical_formula_sum              "Fe48 S96 H768 C432 N24"
_cell_length_a       31.0022
_cell_length_b       30.662
_cell_length_c       57.6531
_cell_angle_alpha    90.0488
_cell_angle_beta     89.8997
_cell_angle_gamma    120.046

_space_group_name_H-M_alt    "P 1"
_space_group_IT_number       1

loop_
  _space_group_symop_operation_xyz
  'x, y, z'

loop_
  _atom_site_type_symbol
  _atom_site_label
  _atom_site_symmetry_multiplicity
  _atom_site_fract_x
  _atom_site_fract_y
  _atom_site_fract_z
  _atom_site_occupancy
  Fe  Fe1       1.0  0.06780  0.28359  0.16193  1.0000
  S   S1        1.0  0.12938  0.36327  0.16791  1.0000
  H   H1        1.0  0.17581  0.17710  0.15970  1.0000
  Fe  Fe2       1.0  0.12367  0.27543  0.11856  1.0000
  S   S2        1.0  0.18677  0.35535  0.12193  1.0000
  S   S3        1.0  0.12484  0.21782  0.09340  1.0000
  Fe  Fe3       1.0  0.18185  0.33467  0.15984  1.0000
  S   S4        1.0  0.24799  0.35223  0.18286  1.0000
  Fe  Fe4       1.0  0.12752  0.37665  0.12963  1.0000
  H   H2        1.0  0.33796  0.29563  0.08689  1.0000
  S   S5        1.0  0.12110  0.25468  0.15643  1.0000
  S   S6        1.0  0.06412  0.29694  0.12365  1.0000
  Fe  Fe5       1.0  0.34922  0.16994  0.21790  1.0000
  S   S7        1.0  0.27187  0.10536  0.22268  1.0000
  S   S8        1.0  0.36474  0.23184  0.19206  1.0000
  Fe  Fe6       1.0  0.39532  0.12964  0.25366  1.0000
  S   S9        1.0  0.31921  0.06299  0.26132  1.0000
  H   H3        1.0  0.24963  0.32244  0.03421  1.0000
  Fe  Fe7       1.0  0.30746  0.05710  0.22245  1.0000
  Fe  Fe8       1.0  0.29049  0.11777  0.26085  1.0000
  S   S10       1.0  0.22872  0.11626  0.28332  1.0000
  S   S11       1.0  0.38474  0.12132  0.21490  1.0000
  S   S12       1.0  0.36669  0.18481  0.25591  1.0000
  S   S13       1.0  0.10937  0.43825  0.11778  1.0000
  H   H4        1.0  0.14183  0.33718  0.26841  1.0000
  C   C1        1.0  0.23611  0.15729  0.30680  1.0000
  C   C2        1.0  0.19356  0.15460  0.31708  1.0000
  H   H5        1.0  0.32138  0.14132  0.06600  1.0000
  H   H6        1.0  0.15700  0.12739  0.31071  1.0000
  H   H7        1.0  0.36016  0.35826  0.28794  1.0000
  H   H8        1.0  0.38569  0.22991  0.10637  1.0000
  C   C3        1.0  0.16807  0.23000  0.07054  1.0000
  C   C4        1.0  0.19647  0.27789  0.06075  1.0000
  C   C5        1.0  0.22866  0.28540  0.04193  1.0000
  C   C6        1.0  0.20611  0.19777  0.04307  1.0000
  C   C7        1.0  0.17303  0.18999  0.06154  1.0000
  H   H9        1.0  0.19291  0.30898  0.06737  1.0000
  H   H10       1.0  0.20947  0.16672  0.03634  1.0000
  H   H11       1.0  0.15110  0.15276  0.06894  1.0000
  C   C8        1.0  0.27681  0.31490  0.18291  1.0000
  C   C9        1.0  0.32844  0.33920  0.17983  1.0000
  C   C10       1.0  0.35448  0.31330  0.18317  1.0000
  C   C11       1.0  0.32948  0.26262  0.18986  1.0000
  C   C12       1.0  0.27754  0.23763  0.19281  1.0000
  C   C13       1.0  0.25118  0.26372  0.18920  1.0000
  H   H12       1.0  0.34863  0.37866  0.17511  1.0000
  H   H13       1.0  0.39445  0.33289  0.18069  1.0000
  H   H14       1.0  0.25775  0.19823  0.19760  1.0000
  H   H15       1.0  0.21130  0.24473  0.19186  1.0000
  N   N1        1.0  0.29489  0.31570  0.26617  1.0000
  C   C14       1.0  0.31041  0.34583  0.24398  1.0000
  C   C15       1.0  0.26160  0.26073  0.26023  1.0000
  C   C16       1.0  0.33950  0.32097  0.27919  1.0000
  C   C17       1.0  0.37747  0.31353  0.26460  1.0000
  C   C18       1.0  0.20952  0.24578  0.25034  1.0000
  C   C19       1.0  0.17951  0.18924  0.24540  1.0000
  H   H16       1.0  0.05277  0.16790  0.23952  1.0000
  H   H17       1.0  0.01503  0.37635  0.05799  1.0000
  H   H18       1.0  0.27740  0.34248  0.23476  1.0000
  H   H19       1.0  0.32677  0.33012  0.23161  1.0000
  H   H20       1.0  0.27993  0.24863  0.24714  1.0000
  H   H21       1.0  0.25586  0.23655  0.27563  1.0000
  H   H22       1.0  0.32710  0.29313  0.29361  1.0000
  H   H23       1.0  0.10002  0.13643  0.01680  1.0000
  H   H24       1.0  0.35883  0.27758  0.25488  1.0000
  H   H25       1.0  0.18759  0.25459  0.26271  1.0000
  H   H26       1.0  0.21296  0.26577  0.23386  1.0000
  H   H27       1.0  0.17210  0.16746  0.26177  1.0000
  H   H28       1.0  0.14335  0.17969  0.23734  1.0000
  H   H29       1.0  0.20004  0.17792  0.23327  1.0000
  C   C20       1.0  0.12667  0.01144  0.20706  1.0000
  H   H30       1.0  0.38896  0.41339  0.21504  1.0000
  H   H31       1.0  0.41535  0.24108  0.14668  1.0000
  H   H32       1.0  0.16552  0.04321  0.20551  1.0000
  H   H33       1.0  0.33618  0.42318  0.21194  1.0000
  N   N2        1.0  0.31423  0.01262  0.10463  1.0000
  C   C21       1.0  0.27954  0.01483  0.08689  1.0000
  C   C22       1.0  0.36792  0.04593  0.09718  1.0000
  H   H34       1.0  0.99090  0.18822  0.25009  1.0000
  C   C23       1.0  0.30543  0.02654  0.12858  1.0000
  C   C24       1.0  0.31478  0.08073  0.13187  1.0000
  C   C25       1.0  0.32166  0.37118  0.09763  1.0000
  C   C26       1.0  0.13209  0.99045  0.29803  1.0000
  C   C27       1.0  0.38142  0.09587  0.08448  1.0000
  C   C28       1.0  0.29553  0.08695  0.15535  1.0000
  H   H35       1.0  0.06476  0.26017  0.23375  1.0000
  H   H36       1.0  0.44555  0.16214  0.07033  1.0000
  H   H37       1.0  0.28515  0.05334  0.08540  1.0000
  H   H38       1.0  0.39320  0.05536  0.11240  1.0000
  H   H39       1.0  0.12448  0.01934  0.33127  1.0000
  C   C29       1.0  0.30708  0.16253  0.05621  1.0000
  H   H40       1.0  0.07280  0.16900  0.26888  1.0000
  H   H41       1.0  0.32994  0.02271  0.14147  1.0000
  H   H42       1.0  0.29618  0.09107  0.11837  1.0000
  H   H43       1.0  0.35549  0.10777  0.13158  1.0000
  C   C30       1.0  0.43741  0.12752  0.08003  1.0000
  H   H44       1.0  0.32787  0.17508  0.03958  1.0000
  H   H45       1.0  0.09499  0.26296  0.34026  1.0000
  H   H46       1.0  0.36277  0.08754  0.06738  1.0000
  C   C31       1.0  0.03026  0.45247  0.05127  1.0000
  H   H47       1.0  0.20462  0.01045  0.28390  1.0000
  H   H48       1.0  0.31014  0.07370  0.16966  1.0000
  H   H49       1.0  0.30798  0.12731  0.15845  1.0000
  H   H50       1.0  0.25419  0.06541  0.15567  1.0000
  H   H51       1.0  0.09251  0.28955  0.30028  1.0000
  C   C32       1.0  0.08694  0.22579  0.33341  1.0000
  C   C33       1.0  0.28734  0.22422  0.33401  1.0000
  H   H52       1.0  0.10309  0.02534  0.21497  1.0000
  H   H53       1.0  0.10964  0.25071  0.24858  1.0000
  H   H54       1.0  0.27575  0.30747  0.31537  1.0000
  H   H55       1.0  0.42691  0.30510  0.14676  1.0000
  H   H56       1.0  0.98877  0.17096  0.27929  1.0000
  S   S14       1.0  0.00532  0.26363  0.18867  1.0000
  H   H57       1.0  0.37894  0.02524  0.08477  1.0000
  H   H58       1.0  0.00243  0.44024  0.03709  1.0000
  H   H59       1.0  0.29002  0.16315  0.10149  1.0000
  H   H60       1.0  0.37943  0.41108  0.25782  1.0000
  H   H61       1.0  0.37918  0.97285  0.11426  1.0000
  C   C34       1.0  0.34701  0.40324  0.24688  1.0000
  C   C35       1.0  0.28307  0.19250  0.31534  1.0000
  H   H62       1.0  0.31615  0.19498  0.30773  1.0000
  C   C36       1.0  0.23368  0.24549  0.03291  1.0000
  H   H63       1.0  0.07534  0.42483  0.06769  1.0000
  H   H64       1.0  0.18419  0.38521  0.23240  1.0000
  H   H65       1.0  0.22420  0.98150  0.24746  1.0000
  H   H66       1.0  0.01796  0.20773  0.31710  1.0000
  H   H67       1.0  0.16489  0.18369  0.34360  1.0000
  H   H68       1.0  0.36986  0.11935  0.09419  1.0000
  C   C37       1.0  0.05411  0.21188  0.31187  1.0000
  H   H69       1.0  0.26714  0.99946  0.13450  1.0000
  H   H70       1.0  0.18782  0.03919  0.32334  1.0000
  S   S15       1.0  0.28258  0.98225  0.20376  1.0000
  H   H71       1.0  0.11489  0.25150  0.28828  1.0000
  H   H72       1.0  0.18545  0.32730  0.23435  1.0000
  C   C38       1.0  0.36719  0.42879  0.22350  1.0000
  H   H73       1.0  0.11408  0.99412  0.25415  1.0000
  H   H74       1.0  0.32470  0.40215  0.10880  1.0000
  C   C39       1.0  0.33348  0.24225  0.12700  1.0000
  H   H75       1.0  0.15738  0.11173  0.15568  1.0000
  C   C40       1.0  0.07994  0.25182  0.29244  1.0000
  C   C41       1.0  0.26837  0.33505  0.28131  1.0000
  H   H76       1.0  0.29184  0.36192  0.08464  1.0000
  C   C42       1.0  0.24588  0.30555  0.30412  1.0000
  C   C43       1.0  0.12193  0.32598  0.25156  1.0000
  H   H77       1.0  0.26705  0.13720  0.05224  1.0000
  H   H78       1.0  0.19809  0.07748  0.02606  1.0000
  H   H79       1.0  0.28851  0.00600  0.06940  1.0000
  C   C44       1.0  0.08589  0.26821  0.25040  1.0000
  H   H80       1.0  0.23853  0.33691  0.27142  1.0000
  H   H81       1.0  0.97180  0.15491  0.19011  1.0000
  H   H82       1.0  0.29455  0.37456  0.28668  1.0000
  H   H83       1.0  0.32757  0.42155  0.25496  1.0000
  C   C45       1.0  0.00348  0.10305  0.25971  1.0000
  H   H84       1.0  0.35499  0.23300  0.07294  1.0000
  H   H85       1.0  0.04608  0.31237  0.27847  1.0000
  C   C46       1.0  0.36111  0.01676  0.03194  1.0000
  H   H86       1.0  0.39822  0.29442  0.10558  1.0000
  H   H87       1.0  0.25108  0.24311  0.13805  1.0000
  C   C47       1.0  0.97562  0.25065  0.28885  1.0000
  H   H88       1.0  0.21841  0.26541  0.30075  1.0000
  H   H89       1.0  0.01195  0.45211  0.06792  1.0000
  C   C48       1.0  0.21958  0.32814  0.31786  1.0000
  H   H90       1.0  0.02183  0.08188  0.25372  1.0000
  C   C49       1.0  0.16078  0.34349  0.23217  1.0000
  H   H91       1.0  0.14536  0.14513  0.13317  1.0000
  C   C50       1.0  0.22298  0.16380  0.13597  1.0000
  H   H92       1.0  0.20384  0.30621  0.33407  1.0000
  H   H93       1.0  0.21575  0.21515  0.11248  1.0000
  H   H94       1.0  0.10105  0.34638  0.24925  1.0000
  H   H95       1.0  0.21732  0.13361  0.12365  1.0000
  H   H96       1.0  0.27373  0.31519  0.12175  1.0000
  C   C51       1.0  0.17230  0.14863  0.14678  1.0000
  C   C52       1.0  0.03998  0.15962  0.25785  1.0000
  C   C53       1.0  0.28851  0.01736  0.01716  1.0000
  H   H97       1.0  0.39697  0.34458  0.25190  1.0000
  H   H98       1.0  0.24770  0.16501  0.15015  1.0000
  C   C54       1.0  0.01501  0.19076  0.26481  1.0000
  C   C55       1.0  0.02143  0.27297  0.27246  1.0000
  C   C56       1.0  0.24521  0.21599  0.12389  1.0000
  H   H99       1.0  0.33667  0.26929  0.14059  1.0000
  H   H100      1.0  0.32394  0.20716  0.13662  1.0000
  H   H101      1.0  0.00819  0.27620  0.25493  1.0000
  H   H102      1.0  0.39973  0.28107  0.29258  1.0000
  N   N3        1.0  0.29268  0.23323  0.11016  1.0000
  C   C57       1.0  0.30354  0.28076  0.09746  1.0000
  H   H103      1.0  0.27323  0.27190  0.08476  1.0000
  H   H104      1.0  0.24426  0.17207  0.08720  1.0000
  H   H105      1.0  0.33917  0.33665  0.12558  1.0000
  H   H106      1.0  0.04720  0.17440  0.30612  1.0000
  C   C58       1.0  0.30902  0.32518  0.11260  1.0000
  N   N4        1.0  0.05026  0.24531  0.27061  1.0000
  C   C59       1.0  0.96123  0.21251  0.20585  1.0000
  H   H107      1.0  0.14227  0.33193  0.21499  1.0000
  H   H108      1.0  0.99130  0.09233  0.27797  1.0000
  H   H109      1.0  0.32390  0.25103  0.34056  1.0000
  C   C60       1.0  0.42473  0.27441  0.13567  1.0000
  C   C61       1.0  0.28392  0.19219  0.09297  1.0000
  H   H110      1.0  0.35773  0.38457  0.08851  1.0000
  C   C62       1.0  0.38582  0.26063  0.11661  1.0000
  H   H111      1.0  0.30246  0.22971  0.05891  1.0000
  C   C63       1.0  0.31461  0.20838  0.07004  1.0000
  H   H112      1.0  0.20182  0.98120  0.05498  1.0000
  C   C64       1.0  0.24490  0.22167  0.34432  1.0000
  C   C65       1.0  0.16732  0.97571  0.28542  1.0000
  H   H113      1.0  0.20389  0.99344  0.18087  1.0000
  H   H114      1.0  0.17786  0.02373  0.24599  1.0000
  H   H115      1.0  0.98768  0.25416  0.30714  1.0000
  H   H116      1.0  0.11252  0.99732  0.18934  1.0000
  H   H117      1.0  0.18879  0.32708  0.30764  1.0000
  H   H118      1.0  0.12259  0.22720  0.32929  1.0000
  H   H119      1.0  0.08611  0.20768  0.02895  1.0000
  H   H120      1.0  0.40026  0.03659  0.03638  1.0000
  C   C66       1.0  0.43100  0.01771  0.31135  1.0000
  C   C67       1.0  0.33937  0.04341  0.02268  1.0000
  C   C68       1.0  0.14272  0.98651  0.24671  1.0000
  H   H121      1.0  0.06399  0.41038  0.03708  1.0000
  H   H122      1.0  0.19864  0.02663  0.07401  1.0000
  H   H123      1.0  0.24636  0.36772  0.32281  1.0000
  C   C69       1.0  0.19786  0.18661  0.33569  1.0000
  C   C70       1.0  0.41713  0.31291  0.28008  1.0000
  H   H124      1.0  0.39926  0.01591  0.32114  1.0000
  H   H125      1.0  0.97017  0.09214  0.24874  1.0000
  H   H126      1.0  0.13229  0.02275  0.28926  1.0000
  C   C71       1.0  0.19215  0.98765  0.07272  1.0000
  H   H127      1.0  0.12039  0.08070  0.02740  1.0000
  C   C72       1.0  0.04736  0.41377  0.05358  1.0000
  H   H128      1.0  0.14638  0.01715  0.03409  1.0000
  H   H129      1.0  0.45040  0.10613  0.06933  1.0000
  H   H130      1.0  0.01357  0.36158  0.34216  1.0000
  C   C73       1.0  0.14896  0.00696  0.32301  1.0000
  C   C74       1.0  0.22293  0.97879  0.09080  1.0000
  H   H131      1.0  0.21092  0.98442  0.10812  1.0000
  H   H132      1.0  0.41619  0.99361  0.29567  1.0000
  S   S16       1.0  0.37747  0.10904  0.01849  1.0000
  H   H133      1.0  0.97109  0.31910  0.29245  1.0000
  C   C75       1.0  0.16289  0.04487  0.01975  1.0000
  H   H134      1.0  0.43787  0.34888  0.28981  1.0000
  H   H135      1.0  0.44401  0.30797  0.26921  1.0000
  H   H136      1.0  0.14686  0.97535  0.33330  1.0000
  H   H137      1.0  0.39215  0.46990  0.22607  1.0000
  H   H138      1.0  0.99593  0.18960  0.43191  1.0000
  Fe  Fe9       1.0  0.22738  0.37890  0.42029  1.0000
  S   S17       1.0  0.21818  0.30220  0.42698  1.0000
  H   H139      1.0  0.11243  0.35177  0.52176  1.0000
  Fe  Fe10      1.0  0.13539  0.32976  0.38759  1.0000
  S   S18       1.0  0.12197  0.25148  0.39270  1.0000
  S   S19       1.0  0.08671  0.34518  0.36342  1.0000
  Fe  Fe11      1.0  0.13587  0.27406  0.43052  1.0000
  S   S20       1.0  0.08675  0.22124  0.45954  1.0000
  Fe  Fe12      1.0  0.20531  0.28754  0.38853  1.0000
  S   S21       1.0  0.25344  0.26392  0.36747  1.0000
  S   S22       1.0  0.14493  0.35055  0.42549  1.0000
  S   S23       1.0  0.21841  0.36571  0.38161  1.0000
  H   H140      1.0  0.28623  0.41456  0.49699  1.0000
  H   H141      1.0  0.22854  0.24166  0.50037  1.0000
  C   C76       1.0  0.18630  0.36862  0.53420  1.0000
  H   H142      1.0  0.01840  0.23731  0.37369  1.0000
  H   H143      1.0  0.15175  0.35115  0.48824  1.0000
  H   H144      1.0  0.21164  0.30243  0.52441  1.0000
  C   C77       1.0  0.02237  0.30336  0.35843  1.0000
  H   H145      1.0  0.11664  0.29653  0.52804  1.0000
  H   H146      1.0  0.00411  0.27569  0.43071  1.0000
  C   C78       1.0  0.96202  0.31368  0.45804  1.0000
  C   C79       1.0  0.22714  0.26111  0.48439  1.0000
  C   C80       1.0  0.02261  0.28469  0.49893  1.0000
  C   C81       1.0  0.05096  0.27747  0.48178  1.0000
  C   C82       1.0  0.04878  0.23100  0.47972  1.0000
  C   C83       1.0  0.01636  0.19139  0.49447  1.0000
  H   H147      1.0  0.03904  0.38626  0.43393  1.0000
  H   H148      1.0  0.02633  0.32140  0.50102  1.0000
  H   H149      1.0  0.07493  0.30799  0.47034  1.0000
  H   H150      1.0  0.21057  0.38423  0.47536  1.0000
  H   H151      1.0  0.16776  0.29125  0.50240  1.0000
  H   H152      1.0  0.00231  0.32693  0.46025  1.0000
  C   C84       1.0  0.99772  0.25261  0.36526  1.0000
  H   H153      1.0  0.95356  0.34167  0.50298  1.0000
  H   H154      1.0  0.22795  0.46517  0.49271  1.0000
  C   C85       1.0  0.97149  0.37377  0.49062  1.0000
  H   H155      1.0  0.19958  0.35421  0.54863  1.0000
  H   H156      1.0  0.24112  0.33396  0.47329  1.0000
  H   H157      1.0  0.01446  0.15527  0.49313  1.0000
  C   C86       1.0  0.98666  0.19820  0.51111  1.0000
  H   H158      1.0  0.25336  0.26034  0.47146  1.0000
  H   H159      1.0  0.28396  0.40860  0.55069  1.0000
  N   N5        1.0  0.21258  0.36993  0.51195  1.0000
  C   C87       1.0  0.26671  0.40995  0.51386  1.0000
  C   C88       1.0  0.19024  0.38223  0.49151  1.0000
  C   C89       1.0  0.12863  0.33554  0.53373  1.0000
  H   H160      1.0  0.28095  0.33512  0.49587  1.0000
  H   H161      1.0  0.27045  0.44737  0.51727  1.0000
  H   H162      1.0  0.95763  0.24785  0.40930  1.0000
  H   H163      1.0  0.29102  0.36373  0.53353  1.0000
  C   C90       1.0  0.98969  0.24508  0.51348  1.0000
  H   H164      1.0  0.17073  0.43441  0.50906  1.0000
  H   H165      1.0  0.01257  0.39040  0.49132  1.0000
  H   H166      1.0  0.11586  0.37054  0.56395  1.0000
  C   C91       1.0  0.20659  0.31843  0.50799  1.0000
  C   C92       1.0  0.04227  0.41451  0.39982  1.0000
  C   C93       1.0  0.24186  0.31570  0.48966  1.0000
  H   H167      1.0  0.96262  0.16762  0.52255  1.0000
  H   H168      1.0  0.37246  0.43423  0.54574  1.0000
  H   H169      1.0  0.02908  0.40099  0.38195  1.0000
  C   C94       1.0  0.02489  0.37017  0.41652  1.0000
  H   H170      1.0  0.02818  0.43978  0.40542  1.0000
  H   H171      1.0  0.04280  0.34822  0.41111  1.0000
  C   C95       1.0  0.18948  0.43243  0.49305  1.0000
  H   H172      1.0  0.18894  0.24040  0.47700  1.0000
  H   H173      1.0  0.19603  0.40734  0.53963  1.0000
  C   C96       1.0  0.10607  0.33241  0.55767  1.0000
  S   S24       1.0  0.28548  0.44271  0.44384  1.0000
  H   H174      1.0  0.06479  0.30912  0.55660  1.0000
  C   C97       1.0  0.29630  0.40223  0.53355  1.0000
  H   H175      1.0  0.36659  0.43345  0.51462  1.0000
  H   H176      1.0  0.96243  0.40295  0.49619  1.0000
  H   H177      1.0  0.18197  0.44092  0.45606  1.0000
  H   H178      1.0  0.11939  0.31447  0.57031  1.0000
  C   C98       1.0  0.35208  0.43959  0.53122  1.0000
  C   C99       1.0  0.16196  0.43844  0.47245  1.0000
  H   H179      1.0  0.97161  0.38991  0.45452  1.0000
  H   H180      1.0  0.95751  0.32070  0.39827  1.0000
  S   S25       1.0  0.95527  0.25750  0.53470  1.0000
  C   C100      1.0  0.95471  0.17153  0.43274  1.0000
  C   C101      1.0  0.96726  0.33631  0.41618  1.0000
  C   C102      1.0  0.96313  0.25771  0.42802  1.0000
  H   H181      1.0  0.08365  0.43644  0.39950  1.0000
  H   H182      1.0  0.12317  0.40630  0.47147  1.0000
  C   C103      1.0  0.99497  0.32256  0.34759  1.0000
  H   H183      1.0  0.06745  0.19701  0.34711  1.0000
  Fe  Fe13      1.0  0.29121  0.13702  0.95115  1.0000
  S   S26       1.0  0.36963  0.15207  0.95470  1.0000
  S   S27       1.0  0.22894  0.07454  0.92953  1.0000
  Fe  Fe14      1.0  0.30572  0.21403  0.98962  1.0000
  S   S28       1.0  0.38555  0.23443  0.99567  1.0000
  H   H184      1.0  0.12684  0.97901  0.78658  1.0000
  Fe  Fe15      1.0  0.39354  0.23506  0.95678  1.0000
  H   H185      1.0  0.09658  0.20014  0.97613  1.0000
  Fe  Fe16      1.0  0.35544  0.15058  0.99305  1.0000
  H   H186      1.0  0.17235  0.21607  0.92507  1.0000
  S   S29       1.0  0.31509  0.21962  0.95066  1.0000
  S   S30       1.0  0.27588  0.13060  0.98961  1.0000
  C   C104      1.0  0.42955  0.40839  0.92213  1.0000
  H   H187      1.0  0.35815  0.03803  0.91813  1.0000
  C   C105      1.0  0.29426  0.03596  0.87785  1.0000
  C   C106      1.0  0.11502  0.15493  0.99979  1.0000
  H   H188      1.0  0.39307  0.38769  0.91315  1.0000
  H   H189      1.0  0.97240  0.00322  0.95848  1.0000
  C   C107      1.0  0.23969  0.04305  0.90616  1.0000
  C   C108      1.0  0.28718  0.06121  0.89665  1.0000
  H   H190      1.0  0.43650  0.02706  0.92080  1.0000
  H   H191      1.0  0.33105  0.05095  0.87038  1.0000
  H   H192      1.0  0.23604  0.24662  0.93482  1.0000
  H   H193      1.0  0.31834  0.09534  0.90345  1.0000
  C   C109      1.0  0.08597  0.18224  0.99348  1.0000
  N   N6        1.0  0.11320  0.11743  0.98229  1.0000
  C   C110      1.0  0.14604  0.09753  0.99096  1.0000
  C   C111      1.0  0.13236  0.14176  0.95893  1.0000
  H   H194      1.0  0.20210  0.98233  0.97011  1.0000
  C   C112      1.0  0.05995  0.07576  0.97956  1.0000
  C   C113      1.0  0.05194  0.03178  0.96339  1.0000
  H   H195      1.0  0.36445  0.04968  0.94825  1.0000
  C   C114      1.0  0.25425  0.99182  0.86848  1.0000
  C   C115      1.0  0.18328  0.19143  0.95900  1.0000
  C   C116      1.0  0.20044  0.21013  0.93428  1.0000
  C   C117      1.0  0.19958  0.99876  0.89687  1.0000
  H   H196      1.0  0.13655  0.25290  0.01095  1.0000
  H   H197      1.0  0.27121  0.03761  0.01022  1.0000
  H   H198      1.0  0.28159  0.02526  0.94976  1.0000
  H   H199      1.0  0.15412  0.07771  0.97687  1.0000
  H   H200      1.0  0.13675  0.11538  0.94716  1.0000
  H   H201      1.0  0.10483  0.14937  0.95016  1.0000
  H   H202      1.0  0.17122  0.02666  0.00509  1.0000
  H   H203      1.0  0.07427  0.24188  0.00682  1.0000
  H   H204      1.0  0.35944  0.99171  0.97517  1.0000
  H   H205      1.0  0.03694  0.09085  0.97214  1.0000
  C   C118      1.0  0.42690  0.04834  0.93330  1.0000
  H   H206      1.0  0.21227  0.18581  0.96736  1.0000
  H   H207      1.0  0.06110  0.04510  0.94517  1.0000
  H   H208      1.0  0.18310  0.12946  0.99597  1.0000
  H   H209      1.0  0.04290  0.06025  0.99680  1.0000
  H   H210      1.0  0.15427  0.18415  0.00330  1.0000
  H   H211      1.0  0.18100  0.22177  0.96843  1.0000
  H   H212      1.0  0.16267  0.98441  0.90405  1.0000
  H   H213      1.0  0.44188  0.10780  0.90830  1.0000
  H   H214      1.0  0.07549  0.01558  0.96842  1.0000
  H   H215      1.0  0.20680  0.18261  0.92446  1.0000
  C   C119      1.0  0.37008  0.02765  0.93442  1.0000
  H   H216      1.0  0.04523  0.15534  0.99363  1.0000
  H   H217      1.0  0.42262  0.40983  0.94096  1.0000
  C   C120      1.0  0.12624  0.06180  0.01231  1.0000
  C   C121      1.0  0.09641  0.22361  0.01116  1.0000
  C   C122      1.0  0.99767  0.98923  0.96395  1.0000
  H   H218      1.0  0.36931  0.99163  0.89050  1.0000
  H   H219      1.0  0.09047  0.02722  0.00837  1.0000
  H   H220      1.0  0.44835  0.12721  0.93838  1.0000
  H   H221      1.0  0.44100  0.04656  0.95075  1.0000
  S   S31       1.0  0.27285  0.25700  0.00832  1.0000
  C   C123      1.0  0.26850  0.98616  0.95571  1.0000
  H   H222      1.0  0.28481  0.98857  0.97295  1.0000
  H   H223      1.0  0.44943  0.38707  0.91959  1.0000
  H   H224      1.0  0.98718  0.97299  0.98167  1.0000
  H   H225      1.0  0.41267  0.97298  0.00010  1.0000
  C   C124      1.0  0.20684  0.97299  0.87828  1.0000
  C   C125      1.0  0.03745  0.81516  0.24970  1.0000
  Fe  Fe17      1.0  0.08481  0.73880  0.05255  1.0000
  S   S32       1.0  0.15431  0.73640  0.04381  1.0000
  C   C126      1.0  0.24065  0.94981  0.18063  1.0000
  Fe  Fe18      1.0  0.13755  0.80812  0.09462  1.0000
  S   S33       1.0  0.20941  0.80905  0.08794  1.0000
  S   S34       1.0  0.13167  0.86056  0.12131  1.0000
  Fe  Fe19      1.0  0.19537  0.81955  0.05073  1.0000
  H   H226      1.0  0.28944  0.86844  0.12476  1.0000
  Fe  Fe20      1.0  0.16154  0.72479  0.08181  1.0000
  S   S35       1.0  0.19171  0.67180  0.09201  1.0000
  S   S36       1.0  0.12602  0.82295  0.05728  1.0000
  S   S37       1.0  0.08961  0.72304  0.09071  1.0000
  C   C127      1.0  0.19161  0.94418  0.25188  1.0000
  H   H227      1.0  0.04809  0.62603  0.05653  1.0000
  C   C128      1.0  0.01446  0.58818  0.05749  1.0000
  C   C129      1.0  0.26042  0.96447  0.01970  1.0000
  S   S38       1.0  0.25365  0.87167  0.02489  1.0000
  H   H228      1.0  0.97584  0.61794  0.07758  1.0000
  C   C130      1.0  0.17422  0.89435  0.14406  1.0000
  C   C131      1.0  0.20949  0.88195  0.15175  1.0000
  C   C132      1.0  0.24226  0.90934  0.16998  1.0000
  H   H229      1.0  0.20965  0.67174  0.03881  1.0000
  H   H230      1.0  0.35125  0.94385  0.04037  1.0000
  H   H231      1.0  0.21089  0.85062  0.14390  1.0000
  C   C133      1.0  0.13424  0.50419  0.11197  1.0000
  C   C134      1.0  0.18428  0.53675  0.10614  1.0000
  C   C135      1.0  0.20113  0.58773  0.10033  1.0000
  C   C136      1.0  0.16857  0.60738  0.10046  1.0000
  C   C137      1.0  0.11891  0.57522  0.10690  1.0000
  C   C138      1.0  0.10179  0.52400  0.11226  1.0000
  C   C139      1.0  0.10203  0.90137  0.26500  1.0000
  H   H232      1.0  0.23975  0.61210  0.09559  1.0000
  H   H233      1.0  0.09376  0.58996  0.10787  1.0000
  H   H234      1.0  0.98998  0.58217  0.04240  1.0000
  H   H235      1.0  0.04381  0.54750  0.07595  1.0000
  C   C140      1.0  0.17222  0.93453  0.15488  1.0000
  H   H236      1.0  0.35431  0.88829  0.12828  1.0000
  H   H237      1.0  0.32956  0.88440  0.09959  1.0000
  H   H238      1.0  0.26898  0.89892  0.17591  1.0000
  H   H239      1.0  0.14492  0.94430  0.14914  1.0000
  H   H240      1.0  0.01024  0.82783  0.24608  1.0000
  H   H241      1.0  0.17237  0.95049  0.29758  1.0000
  H   H242      1.0  0.22118  0.87497  0.23963  1.0000
  H   H243      1.0  0.06987  0.90809  0.26507  1.0000
  C   C141      1.0  0.98567  0.58782  0.07911  1.0000
  C   C142      1.0  0.11023  0.59592  0.04019  1.0000
  C   C143      1.0  0.19542  0.65224  0.02192  1.0000
  H   H244      1.0  0.12384  0.60644  0.05827  1.0000
  H   H245      1.0  0.33764  0.95640  0.13869  1.0000
  N   N7        1.0  0.06228  0.54592  0.04000  1.0000
  H   H246      1.0  0.18085  0.92408  0.23503  1.0000
  H   H247      1.0  0.09905  0.51744  0.06226  1.0000
  C   C144      1.0  0.28305  0.93769  0.02794  1.0000
  S   S39       1.0  0.02020  0.68868  0.02790  1.0000
  H   H248      1.0  0.09565  0.87232  0.22896  1.0000
  C   C145      1.0  0.09077  0.85898  0.24710  1.0000
  H   H249      1.0  0.99139  0.51009  0.05821  1.0000
  C   C146      1.0  0.21094  0.91679  0.26780  1.0000
  H   H250      1.0  0.21328  0.93884  0.08909  1.0000
  C   C147      1.0  0.34003  0.94901  0.12004  1.0000
  C   C148      1.0  0.24247  0.89976  0.25438  1.0000
  H   H251      1.0  0.03090  0.78498  0.23711  1.0000
  H   H252      1.0  0.09325  0.95844  0.29853  1.0000
  H   H253      1.0  0.17005  0.57828  0.03536  1.0000
  C   C149      1.0  0.32744  0.89418  0.11796  1.0000
  H   H254      1.0  0.10086  0.88462  0.28230  1.0000
  H   H255      1.0  0.09747  0.50153  0.03253  1.0000
  H   H256      1.0  0.11613  0.84368  0.24978  1.0000
  H   H257      1.0  0.10448  0.62690  0.03420  1.0000
  H   H258      1.0  0.23500  0.94279  0.28166  1.0000
  H   H259      1.0  0.17969  0.88336  0.27622  1.0000
  H   H260      1.0  0.20988  0.52248  0.10575  1.0000
  C   C150      1.0  0.07501  0.50585  0.04647  1.0000
  C   C151      1.0  0.15366  0.59805  0.02584  1.0000
  H   H261      1.0  0.00794  0.77603  0.01733  1.0000
  H   H262      1.0  0.26587  0.93336  0.11266  1.0000
  C   C152      1.0  0.02775  0.54589  0.05855  1.0000
  H   H263      1.0  0.03110  0.79914  0.26748  1.0000
  H   H264      1.0  0.25376  0.87848  0.26608  1.0000
  H   H265      1.0  0.06313  0.49958  0.11692  1.0000
  H   H266      1.0  0.27679  0.93297  0.24766  1.0000
  H   H267      1.0  0.30318  0.94490  0.08743  1.0000
  C   C153      1.0  0.20551  0.96239  0.17291  1.0000
  C   C154      1.0  0.30360  0.95878  0.10539  1.0000
  H   H268      1.0  0.14816  0.95603  0.21272  1.0000
  H   H269      1.0  0.00892  0.59534  0.09489  1.0000
  H   H270      1.0  0.08560  0.93776  0.22181  1.0000
  H   H271      1.0  0.43219  0.96189  0.33316  1.0000
  C   C155      1.0  0.33324  0.96424  0.03439  1.0000
  N   N8        1.0  0.15018  0.95077  0.26195  1.0000
  H   H272      1.0  0.22189  0.94413  0.01422  1.0000
  H   H273      1.0  0.15192  0.96076  0.07574  1.0000
  C   C156      1.0  0.12492  0.96891  0.22161  1.0000
  H   H274      1.0  0.99639  0.50628  0.01862  1.0000
  C   C157      1.0  0.03699  0.53334  0.01656  1.0000
  H   H275      1.0  0.34296  0.50906  0.40468  1.0000
  H   H276      1.0  0.08242  0.71505  0.65642  1.0000
  C   C158      1.0  0.40836  0.57233  0.42000  1.0000
  H   H277      1.0  0.42225  0.59125  0.40359  1.0000
  H   H278      1.0  0.35667  0.50467  0.47856  1.0000
  C   C159      1.0  0.41655  0.56961  0.46150  1.0000
  C   C160      1.0  0.37100  0.52320  0.46210  1.0000
  C   C161      1.0  0.34387  0.50065  0.44166  1.0000
  C   C162      1.0  0.36320  0.52552  0.42055  1.0000
  C   C163      1.0  0.43551  0.59483  0.44043  1.0000
  C   C164      1.0  0.06206  0.70322  0.67319  1.0000
  H   H279      1.0  0.43661  0.58621  0.47740  1.0000
  H   H280      1.0  0.02609  0.66785  0.67035  1.0000
  H   H281      1.0  0.05369  0.73268  0.67910  1.0000
  H   H282      1.0  0.44556  0.76881  0.41889  1.0000
  H   H283      1.0  0.35948  0.47898  0.53174  1.0000
  H   H284      1.0  0.16065  0.47379  0.47439  1.0000
  Fe  Fe21      1.0  0.14550  0.82784  0.78514  1.0000
  S   S40       1.0  0.14701  0.75763  0.79396  1.0000
  S   S41       1.0  0.10235  0.83249  0.75382  1.0000
  Fe  Fe22      1.0  0.21765  0.88737  0.82570  1.0000
  S   S42       1.0  0.22424  0.82012  0.83610  1.0000
  C   C165      1.0  0.40970  0.78841  0.75791  1.0000
  Fe  Fe23      1.0  0.23080  0.80768  0.79786  1.0000
  S   S43       1.0  0.28013  0.78626  0.77581  1.0000
  Fe  Fe24      1.0  0.14083  0.77747  0.83086  1.0000
  S   S44       1.0  0.08898  0.72802  0.85929  1.0000
  S   S45       1.0  0.22898  0.87768  0.78772  1.0000
  S   S46       1.0  0.13430  0.84511  0.82206  1.0000
  H   H285      1.0  0.42239  0.96758  0.95733  1.0000
  C   C166      1.0  0.22232  0.79351  0.71543  1.0000
  H   H286      1.0  0.03931  0.82207  0.90851  1.0000
  C   C167      1.0  0.14038  0.74431  0.69771  1.0000
  H   H287      1.0  0.13109  0.73227  0.74180  1.0000
  C   C168      1.0  0.02374  0.69647  0.85517  1.0000
  H   H288      1.0  0.15825  0.64813  0.73815  1.0000
  H   H289      1.0  0.09892  0.93428  0.76323  1.0000
  H   H290      1.0  0.02218  0.64047  0.83213  1.0000
  H   H291      1.0  0.01291  0.53416  0.96995  1.0000
  C   C169      1.0  0.98104  0.69849  0.00847  1.0000
  H   H292      1.0  0.05097  0.51316  0.00554  1.0000
  C   C170      1.0  0.36145  0.78286  0.75765  1.0000
  C   C171      1.0  0.34229  0.79576  0.77707  1.0000
  C   C172      1.0  0.37244  0.81437  0.79681  1.0000
  C   C173      1.0  0.42041  0.81925  0.79717  1.0000
  C   C174      1.0  0.24351  0.71126  0.71120  1.0000
  H   H293      1.0  0.33879  0.76833  0.74227  1.0000
  H   H294      1.0  0.35862  0.82438  0.81194  1.0000
  H   H295      1.0  0.15816  0.76470  0.68130  1.0000
  C   C175      1.0  0.02919  0.79471  0.72022  1.0000
  C   C176      1.0  0.05190  0.78276  0.73835  1.0000
  C   C177      1.0  0.03416  0.73202  0.74352  1.0000
  H   H296      1.0  0.04262  0.83381  0.71600  1.0000
  H   H297      1.0  0.05076  0.72210  0.75754  1.0000
  N   N9        1.0  0.06651  0.78872  0.93340  1.0000
  C   C178      1.0  0.10436  0.79346  0.91554  1.0000
  C   C179      1.0  0.02064  0.73657  0.93262  1.0000
  C   C180      1.0  0.05082  0.82664  0.92709  1.0000
  C   C181      1.0  0.08815  0.80082  0.95751  1.0000
  C   C182      1.0  0.11026  0.76880  0.96666  1.0000
  C   C183      1.0  0.15374  0.84470  0.91454  1.0000
  C   C184      1.0  0.00781  0.82466  0.94173  1.0000
  C   C185      1.0  0.02810  0.69160  0.92608  1.0000
  C   C186      1.0  0.21068  0.83327  0.72565  1.0000
  H   H298      1.0  0.00934  0.82064  0.83238  1.0000
  H   H299      1.0  0.19821  0.92196  0.96683  1.0000
  H   H300      1.0  0.06701  0.91781  0.81450  1.0000
  H   H301      1.0  0.08742  0.78619  0.89797  1.0000
  H   H302      1.0  0.11526  0.76439  0.91794  1.0000
  H   H303      1.0  0.18187  0.67326  0.01139  1.0000
  H   H304      1.0  0.99334  0.73521  0.91966  1.0000
  H   H305      1.0  0.97925  0.85282  0.91459  1.0000
  H   H306      1.0  0.08240  0.86579  0.92894  1.0000
  H   H307      1.0  0.11708  0.84133  0.95882  1.0000
  H   H308      1.0  0.05914  0.79554  0.97037  1.0000
  H   H309      1.0  0.13705  0.76774  0.95427  1.0000
  H   H310      1.0  0.07981  0.72985  0.97029  1.0000
  H   H311      1.0  0.14053  0.57964  0.00870  1.0000
  H   H312      1.0  0.17420  0.85222  0.93116  1.0000
  H   H313      1.0  0.05665  0.69004  0.93693  1.0000
  H   H314      1.0  0.25540  0.67104  0.68296  1.0000
  H   H315      1.0  0.04008  0.69476  0.90771  1.0000
  H   H316      1.0  0.27783  0.74736  0.70699  1.0000
  H   H317      1.0  0.13010  0.92203  0.78668  1.0000
  C   C187      1.0  0.13798  0.79012  0.98945  1.0000
  H   H318      1.0  0.99261  0.95884  0.95184  1.0000
  H   H319      1.0  0.43707  0.47990  0.91367  1.0000
  H   H320      1.0  0.22230  0.88156  0.89458  1.0000
  C   C188      1.0  0.00007  0.65214  0.84209  1.0000
  H   H321      1.0  0.27970  0.89809  0.71336  1.0000
  C   C189      1.0  0.34045  0.95259  0.89513  1.0000
  H   H322      1.0  0.08492  0.60242  0.76362  1.0000
  C   C190      1.0  0.98954  0.75651  0.70728  1.0000
  H   H323      1.0  0.12615  0.76684  0.70662  1.0000
  H   H324      1.0  0.97289  0.76635  0.69324  1.0000
  H   H325      1.0  0.25968  0.91716  0.94036  1.0000
  H   H326      1.0  0.10276  0.64117  0.72539  1.0000
  H   H327      1.0  0.16879  0.83810  0.87813  1.0000
  H   H328      1.0  0.31287  0.92810  0.97105  1.0000
  H   H329      1.0  0.01246  0.74449  0.87857  1.0000
  H   H330      1.0  0.98568  0.74426  0.81820  1.0000
  H   H331      1.0  0.02533  0.85044  0.77082  1.0000
  H   H332      1.0  0.19726  0.81473  0.89824  1.0000
  H   H333      1.0  0.97112  0.66853  0.79541  1.0000
  H   H334      1.0  0.25075  0.79338  0.72718  1.0000
  H   H335      1.0  0.01625  0.75860  0.79038  1.0000
  S   S47       1.0  0.26615  0.96202  0.84476  1.0000
  C   C191      1.0  0.25872  0.88323  0.72982  1.0000
  H   H336      1.0  0.97012  0.79354  0.87176  1.0000
  H   H337      1.0  0.24020  0.70820  0.73039  1.0000
  H   H338      1.0  0.96232  0.85987  0.94364  1.0000
  H   H339      1.0  0.28276  0.87825  0.74259  1.0000
  N   N10       1.0  0.97562  0.82573  0.80034  1.0000
  H   H340      1.0  0.96754  0.63431  0.94694  1.0000
  H   H341      1.0  0.18733  0.73493  0.74963  1.0000
  H   H342      1.0  0.07645  0.65637  0.76459  1.0000
  H   H343      1.0  0.38368  0.92053  0.88062  1.0000
  C   C192      1.0  0.25082  0.66859  0.70211  1.0000
  H   H344      1.0  0.14721  0.87633  0.91075  1.0000
  H   H345      1.0  0.05092  0.83922  0.79612  1.0000
  H   H346      1.0  0.08149  0.59961  0.99447  1.0000
  C   C193      1.0  0.15739  0.71947  0.73627  1.0000
  H   H347      1.0  0.03593  0.93102  0.79151  1.0000
  C   C194      1.0  0.18751  0.84455  0.89524  1.0000
  H   H348      1.0  0.18786  0.84145  0.71353  1.0000
  H   H349      1.0  0.37168  0.90348  0.95752  1.0000
  N   N11       1.0  0.17856  0.74070  0.71259  1.0000
  C   C195      1.0  0.10446  0.64417  0.76247  1.0000
  C   C196      1.0  0.99478  0.69387  0.73051  1.0000
  H   H350      1.0  0.01915  0.83443  0.96009  1.0000
  H   H351      1.0  0.96787  0.54117  0.98735  1.0000
  H   H352      1.0  0.13203  0.65981  0.77680  1.0000
  H   H353      1.0  0.27457  0.96744  0.92075  1.0000
  C   C197      1.0  0.43962  0.80638  0.77777  1.0000
  H   H354      1.0  0.24951  0.91137  0.73680  1.0000
  H   H355      1.0  0.31699  0.87725  0.88187  1.0000
  C   C198      1.0  0.13077  0.66121  0.73905  1.0000
  C   C199      1.0  0.05726  0.91193  0.79580  1.0000
  H   H356      1.0  0.19050  0.82000  0.74237  1.0000
  C   C200      1.0  0.99460  0.71043  0.86844  1.0000
  H   H357      1.0  0.34260  0.92640  0.86041  1.0000
  H   H358      1.0  0.16872  0.82960  0.98722  1.0000
  H   H359      1.0  0.17572  0.93914  0.87126  1.0000
  H   H360      1.0  0.31906  0.89996  0.92394  1.0000
  C   C201      1.0  0.02735  0.85470  0.79008  1.0000
  C   C202      1.0  0.10617  0.93827  0.78221  1.0000
  H   H361      1.0  0.11199  0.78884  0.00310  1.0000
  H   H362      1.0  0.28489  0.67155  0.70999  1.0000
  H   H363      1.0  0.98529  0.61029  0.92242  1.0000
  H   H364      1.0  0.24139  0.80828  0.69845  1.0000
  C   C203      1.0  0.19750  0.71041  0.69999  1.0000
  H   H365      1.0  0.30356  0.94821  0.89159  1.0000
  H   H366      1.0  0.42362  0.92234  0.99240  1.0000
  H   H367      1.0  0.99437  0.86910  0.83203  1.0000
  C   C204      1.0  0.04307  0.57829  0.00158  1.0000
  C   C205      1.0  0.21197  0.95944  0.95867  1.0000
  H   H368      1.0  0.15448  0.76720  0.99532  1.0000
  C   C206      1.0  0.34640  0.91690  0.87862  1.0000
  H   H369      1.0  0.01353  0.59332  0.97047  1.0000
  C   C207      1.0  0.28422  0.95857  0.93797  1.0000
  C   C208      1.0  0.97965  0.74287  0.79921  1.0000
  C   C209      1.0  0.00704  0.56034  0.98108  1.0000
  C   C210      1.0  0.34566  0.94075  0.92082  1.0000
  H   H370      1.0  0.02506  0.90118  0.93344  1.0000
  C   C211      1.0  0.98046  0.82957  0.82639  1.0000
  C   C212      1.0  0.97228  0.70572  0.71223  1.0000
  H   H371      1.0  0.38327  0.94503  0.92198  1.0000
  C   C213      1.0  0.98236  0.74466  0.00665  1.0000
  H   H372      1.0  0.16787  0.67053  0.69803  1.0000
  C   C214      1.0  0.97953  0.64136  0.92853  1.0000
  H   H373      1.0  0.42350  0.77813  0.74285  1.0000
  H   H374      1.0  0.36163  0.90840  0.00007  1.0000
  H   H375      1.0  0.00057  0.72756  0.94953  1.0000
  H   H376      1.0  0.97419  0.78684  0.94108  1.0000
  C   C215      1.0  0.99294  0.86211  0.93271  1.0000
  C   C216      1.0  0.39661  0.93600  0.99115  1.0000
  H   H377      1.0  0.10114  0.66597  0.68413  1.0000
  C   C217      1.0  0.34783  0.95907  0.96321  1.0000
  H   H378      1.0  0.03659  0.60517  0.01161  1.0000
  H   H379      1.0  0.21852  0.63142  0.70689  1.0000
  H   H380      1.0  0.44288  0.83310  0.81267  1.0000
  H   H381      1.0  0.95732  0.84503  0.87115  1.0000
  H   H382      1.0  0.20819  0.72447  0.68187  1.0000
  H   H383      1.0  0.06881  0.67873  0.70694  1.0000
  H   H384      1.0  0.19343  0.95480  0.94168  1.0000
  H   H385      1.0  0.96105  0.86838  0.77440  1.0000
  H   H386      1.0  0.98172  0.65475  0.73456  1.0000
  C   C218      1.0  0.09276  0.69437  0.69135  1.0000
  C   C219      1.0  0.38641  0.94118  0.96567  1.0000
  N   N12       1.0  0.33821  0.97198  0.93901  1.0000
  H   H387      1.0  0.22674  0.65229  0.01252  1.0000
  Fe  Fe25      1.0  0.80265  0.09272  0.28273  1.0000
  S   S48       1.0  0.79825  0.16293  0.28745  1.0000
  S   S49       1.0  0.84871  0.08507  0.25359  1.0000
  Fe  Fe26      1.0  0.72889  0.03757  0.32346  1.0000
  S   S50       1.0  0.72099  0.10551  0.33026  1.0000
  Fe  Fe27      1.0  0.71489  0.11156  0.29162  1.0000
  S   S51       1.0  0.65583  0.11510  0.26841  1.0000
  Fe  Fe28      1.0  0.80450  0.14965  0.32543  1.0000
  H   H388      1.0  0.91332  0.26126  0.29753  1.0000
  S   S52       1.0  0.71939  0.04152  0.28491  1.0000
  S   S53       1.0  0.81275  0.08160  0.32074  1.0000
  C   C220      1.0  0.93467  0.22234  0.22290  1.0000
  H   H389      1.0  0.87073  0.18311  0.13605  1.0000
  H   H390      1.0  0.82002  0.22051  0.18497  1.0000
  C   C221      1.0  0.60166  0.12156  0.27124  1.0000
  C   C222      1.0  0.56876  0.10866  0.25229  1.0000
  C   C223      1.0  0.52618  0.11436  0.25332  1.0000
  C   C224      1.0  0.51592  0.13351  0.27333  1.0000
  C   C225      1.0  0.54867  0.14606  0.29235  1.0000
  C   C226      1.0  0.59109  0.14011  0.29136  1.0000
  H   H391      1.0  0.57627  0.09420  0.23662  1.0000
  H   H392      1.0  0.82828  0.25546  0.22150  1.0000
  H   H393      1.0  0.54140  0.16105  0.30792  1.0000
  H   H394      1.0  0.61620  0.15110  0.30595  1.0000
  H   H395      1.0  0.68672  0.17668  0.21081  1.0000
  H   H396      1.0  0.50153  0.10435  0.23855  1.0000
  C   C227      1.0  0.90028  0.18384  0.23761  1.0000
  C   C228      1.0  0.89108  0.13456  0.23512  1.0000
  H   H397      1.0  0.71085  0.11646  0.17508  1.0000
  H   H398      1.0  0.61580  0.02024  0.29112  1.0000
  H   H399      1.0  0.45825  0.13874  0.09665  1.0000
  H   H400      1.0  0.88116  0.19239  0.25096  1.0000
  H   H401      1.0  0.71075  0.07519  0.23626  1.0000
  C   C229      1.0  0.86643  0.20000  0.15232  1.0000
  H   H402      1.0  0.86253  0.23303  0.14773  1.0000
  H   H403      1.0  0.73674  0.18237  0.17708  1.0000
  H   H404      1.0  0.94121  0.26028  0.22489  1.0000
  H   H405      1.0  0.82646  0.12836  0.16889  1.0000
  N   N13       1.0  0.53793  0.98871  0.32681  1.0000
  H   H406      1.0  0.90075  0.21296  0.16285  1.0000
  C   C230      1.0  0.95195  0.16317  0.20325  1.0000
  H   H407      1.0  0.90969  0.08630  0.21550  1.0000
  H   H408      1.0  0.60269  0.12730  0.19507  1.0000
  H   H409      1.0  0.78740  0.14830  0.15452  1.0000
  C   C231      1.0  0.45946  0.00019  0.32675  1.0000
  H   H410      1.0  0.73566  0.22770  0.25156  1.0000
  H   H411      1.0  0.62176  0.09332  0.17608  1.0000
  H   H412      1.0  0.78690  0.29023  0.24610  1.0000
  C   C232      1.0  0.71518  0.01214  0.22324  1.0000
  H   H413      1.0  0.66395  0.11111  0.21449  1.0000
  H   H414      1.0  0.64505  0.13929  0.34430  1.0000
  C   C233      1.0  0.77612  0.24990  0.24746  1.0000
  H   H415      1.0  0.52238  0.03411  0.30300  1.0000
  H   H416      1.0  0.79761  0.24592  0.26186  1.0000
  H   H417      1.0  0.74803  0.01977  0.23390  1.0000
  H   H418      1.0  0.60092  0.06168  0.31831  1.0000
  H   H419      1.0  0.67974  0.05014  0.20883  1.0000
  H   H420      1.0  0.68110  0.98457  0.23268  1.0000
  H   H421      1.0  0.76827  0.24038  0.21045  1.0000
  C   C234      1.0  0.50181  0.99840  0.31309  1.0000
  C   C235      1.0  0.91668  0.12435  0.21768  1.0000
  N   N14       1.0  0.76646  0.15111  0.20201  1.0000
  C   C236      1.0  0.77175  0.17564  0.22534  1.0000
  C   C237      1.0  0.76050  0.09957  0.20561  1.0000
  C   C238      1.0  0.81476  0.18263  0.18898  1.0000
  C   C239      1.0  0.72389  0.14785  0.18784  1.0000
  C   C240      1.0  0.67760  0.14151  0.20141  1.0000
  C   C241      1.0  0.78746  0.23235  0.22462  1.0000
  C   C242      1.0  0.82069  0.16081  0.16568  1.0000
  C   C243      1.0  0.71377  0.06068  0.21911  1.0000
  C   C244      1.0  0.58311  0.03769  0.33382  1.0000
  C   C245      1.0  0.63449  0.12988  0.18500  1.0000
  H   H422      1.0  0.64595  0.16024  0.17188  1.0000
  H   H423      1.0  0.80005  0.17254  0.23596  1.0000
  H   H424      1.0  0.73701  0.15544  0.23562  1.0000
  H   H425      1.0  0.75826  0.08116  0.18870  1.0000
  H   H426      1.0  0.79400  0.10323  0.21460  1.0000
  H   H427      1.0  0.84699  0.18957  0.19998  1.0000
  H   H428      1.0  0.71686  0.99506  0.20650  1.0000
  C   C246      1.0  0.57911  0.98638  0.28789  1.0000
  H   H429      1.0  0.61231  0.03072  0.34116  1.0000
  H   H430      1.0  0.93576  0.27936  0.26838  1.0000
  H   H431      1.0  0.55575  0.99799  0.27809  1.0000
  H   H432      1.0  0.47374  0.02583  0.34186  1.0000
  C   C247      1.0  0.94741  0.27951  0.28659  1.0000
  S   S54       1.0  0.46286  0.14208  0.27585  1.0000
  H   H433      1.0  0.55277  0.08676  0.34197  1.0000
  H   H434      1.0  0.46193  0.28759  0.12776  1.0000
  H   H435      1.0  0.45572  0.05732  0.30589  1.0000
  H   H436      1.0  0.94861  0.21070  0.28487  1.0000
  H   H437      1.0  0.92241  0.30889  0.33741  1.0000
  C   C248      1.0  0.94329  0.29250  0.34462  1.0000
  Fe  Fe29      1.0  0.88429  0.20744  0.55595  1.0000
  S   S55       1.0  0.81921  0.21791  0.54688  1.0000
  Fe  Fe30      1.0  0.82410  0.13252  0.59549  1.0000
  S   S56       1.0  0.75651  0.13889  0.58848  1.0000
  S   S57       1.0  0.82491  0.07663  0.62160  1.0000
  Fe  Fe31      1.0  0.77325  0.13361  0.55095  1.0000
  S   S58       1.0  0.71476  0.08649  0.52410  1.0000
  Fe  Fe32      1.0  0.80907  0.22311  0.58529  1.0000
  S   S59       1.0  0.78701  0.27363  0.60609  1.0000
  S   S60       1.0  0.83825  0.12284  0.55791  1.0000
  S   S61       1.0  0.87663  0.21688  0.59453  1.0000
  H   H438      1.0  0.62329  0.01116  0.50457  1.0000
  H   H439      1.0  0.75667  0.04081  0.37874  1.0000
  H   H440      1.0  0.87481  0.12156  0.51278  1.0000
  C   C249      1.0  0.78068  0.03913  0.64325  1.0000
  H   H441      1.0  0.77921  0.97304  0.42993  1.0000
  C   C250      1.0  0.57378  0.07110  0.35086  1.0000
  C   C251      1.0  0.79811  0.33708  0.60547  1.0000
  C   C252      1.0  0.82547  0.37139  0.58786  1.0000
  C   C253      1.0  0.83265  0.42082  0.58817  1.0000
  C   C254      1.0  0.81322  0.43720  0.60618  1.0000
  C   C255      1.0  0.78630  0.40305  0.62391  1.0000
  C   C256      1.0  0.77858  0.35343  0.62344  1.0000
  H   H442      1.0  0.84092  0.35979  0.57393  1.0000
  H   H443      1.0  0.85376  0.44671  0.57440  1.0000
  H   H444      1.0  0.77077  0.41461  0.63783  1.0000
  H   H445      1.0  0.75706  0.32745  0.63713  1.0000
  H   H446      1.0  0.77827  0.19333  0.63858  1.0000
  C   C257      1.0  0.68839  0.02041  0.52231  1.0000
  H   H447      1.0  0.67401  0.16622  0.64397  1.0000
  C   C258      1.0  0.71228  0.99548  0.53118  1.0000
  H   H448      1.0  0.91198  0.34343  0.46602  1.0000
  H   H449      1.0  0.55302  0.04996  0.36647  1.0000
  H   H450      1.0  0.73060  0.98899  0.48245  1.0000
  H   H451      1.0  0.69275  0.12303  0.63286  1.0000
  N   N15       1.0  0.94542  0.29419  0.43376  1.0000
  C   C259      1.0  0.86099  0.26424  0.65827  1.0000
  H   H452      1.0  0.72624  0.45261  0.51590  1.0000
  H   H453      1.0  0.80888  0.10359  0.37611  1.0000
  C   C260      1.0  0.95243  0.35649  0.46598  1.0000
  H   H454      1.0  0.93646  0.36396  0.64991  1.0000
  H   H455      1.0  0.86204  0.25490  0.63966  1.0000
  C   C261      1.0  0.91832  0.24190  0.35137  1.0000
  C   C262      1.0  0.88526  0.18857  0.67323  1.0000
  H   H456      1.0  0.87579  0.26649  0.39539  1.0000
  H   H457      1.0  0.65081  0.01327  0.61517  1.0000
  H   H458      1.0  0.83431  0.02140  0.44244  1.0000
  C   C263      1.0  0.72477  0.15590  0.66645  1.0000
  H   H459      1.0  0.58760  0.97699  0.60707  1.0000
  H   H460      1.0  0.89566  0.38920  0.64501  1.0000
  H   H461      1.0  0.63458  0.44716  0.58258  1.0000
  C   C264      1.0  0.89865  0.35460  0.64410  1.0000
  H   H462      1.0  0.63308  0.08155  0.56493  1.0000
  H   H463      1.0  0.89815  0.18861  0.44202  1.0000
  H   H464      1.0  0.74822  0.01692  0.53948  1.0000
  H   H465      1.0  0.67617  0.03599  0.57406  1.0000
  C   C265      1.0  0.78749  0.00340  0.65558  1.0000
  C   C266      1.0  0.86450  0.24000  0.41024  1.0000
  H   H466      1.0  0.61404  0.99306  0.56406  1.0000
  H   H467      1.0  0.61503  0.13968  0.37099  1.0000
  C   C267      1.0  0.79394  0.99583  0.44606  1.0000
  C   C268      1.0  0.77721  0.07793  0.38743  1.0000
  C   C269      1.0  0.62284  0.11578  0.35920  1.0000
  N   N16       1.0  0.81978  0.21895  0.67063  1.0000
  C   C270      1.0  0.80771  0.21314  0.41212  1.0000
  H   H468      1.0  0.79522  0.38618  0.52786  1.0000
  H   H469      1.0  0.73108  0.12452  0.67109  1.0000
  H   H470      1.0  0.64508  0.10246  0.36885  1.0000
  C   C271      1.0  0.70732  0.01635  0.66698  1.0000
  H   H471      1.0  0.94284  0.28256  0.47085  1.0000
  H   H472      1.0  0.89346  0.34201  0.62572  1.0000
  H   H473      1.0  0.88681  0.14988  0.48466  1.0000
  H   H474      1.0  0.79088  0.19321  0.39560  1.0000
  C   C272      1.0  0.71445  0.98105  0.67954  1.0000
  C   C273      1.0  0.73984  0.04479  0.64880  1.0000
  H   H475      1.0  0.73388  0.07165  0.63930  1.0000
  H   H476      1.0  0.87203  0.24326  0.44785  1.0000
  H   H477      1.0  0.95039  0.36077  0.41794  1.0000
  H   H478      1.0  0.83343  0.14150  0.50126  1.0000
  C   C274      1.0  0.77264  0.20205  0.65676  1.0000
  H   H479      1.0  0.95177  0.21642  0.46063  1.0000
  C   C275      1.0  0.88936  0.26915  0.43284  1.0000
  H   H480      1.0  0.82232  0.30827  0.65377  1.0000
  H   H481      1.0  0.76927  0.43643  0.55126  1.0000
  H   H482      1.0  0.69520  0.97702  0.57729  1.0000
  H   H483      1.0  0.75211  0.09379  0.38942  1.0000
  H   H484      1.0  0.94041  0.13806  0.44424  1.0000
  N   N17       1.0  0.76873  0.02638  0.45067  1.0000
  C   C276      1.0  0.77786  0.40597  0.51920  1.0000
  C   C277      1.0  0.80394  0.07554  0.46251  1.0000
  C   C278      1.0  0.75374  0.03903  0.42779  1.0000
  H   H485      1.0  0.79506  0.24071  0.41533  1.0000
  H   H486      1.0  0.64840  0.10394  0.65627  1.0000
  H   H487      1.0  0.79510  0.41869  0.50180  1.0000
  C   C279      1.0  0.79695  0.07302  0.41098  1.0000
  C   C280      1.0  0.82500  0.07221  0.48631  1.0000
  C   C281      1.0  0.85683  0.12462  0.49677  1.0000
  H   H488      1.0  0.87471  0.21094  0.40626  1.0000
  C   C282      1.0  0.62263  0.05878  0.58111  1.0000
  H   H489      1.0  0.73739  0.37885  0.51723  1.0000
  H   H490      1.0  0.70700  0.02403  0.46949  1.0000
  H   H491      1.0  0.81675  0.15299  0.65468  1.0000
  H   H492      1.0  0.83765  0.09793  0.45173  1.0000
  H   H493      1.0  0.78566  0.09874  0.46468  1.0000
  H   H494      1.0  0.73163  0.05812  0.43085  1.0000
  C   C283      1.0  0.94579  0.22187  0.36162  1.0000
  H   H495      1.0  0.69628  0.45308  0.55188  1.0000
  H   H496      1.0  0.64302  0.08421  0.59580  1.0000
  C   C284      1.0  0.68246  0.13617  0.64876  1.0000
  H   H497      1.0  0.79430  0.18492  0.42635  1.0000
  H   H498      1.0  0.58192  0.04209  0.58391  1.0000
  H   H499      1.0  0.72891  0.00394  0.41799  1.0000
  H   H500      1.0  0.82209  0.05749  0.40811  1.0000
  H   H501      1.0  0.81904  0.11190  0.41787  1.0000
  H   H502      1.0  0.79519  0.04962  0.49898  1.0000
  H   H503      1.0  0.84962  0.05586  0.48420  1.0000
  H   H504      1.0  0.71052  0.98881  0.60703  1.0000
  H   H505      1.0  0.87749  0.29772  0.43474  1.0000
  C   C285      1.0  0.75447  0.97432  0.67352  1.0000
  C   C286      1.0  0.72214  0.99875  0.46523  1.0000
  C   C287      1.0  0.78621  0.45094  0.53397  1.0000
  H   H506      1.0  0.90444  0.20265  0.65626  1.0000
  C   C288      1.0  0.63613  0.01739  0.57870  1.0000
  C   C289      1.0  0.62569  0.98692  0.60157  1.0000
  H   H507      1.0  0.93926  0.15888  0.41505  1.0000
  C   C290      1.0  0.64203  0.99222  0.51145  1.0000
  H   H508      1.0  0.92665  0.18325  0.36761  1.0000
  S   S62       1.0  0.85229  0.20891  0.35197  1.0000
  H   H509      1.0  0.79578  0.97396  0.48281  1.0000
  H   H510      1.0  0.81898  0.99870  0.65145  1.0000
  C   C291      1.0  0.85865  0.31368  0.65948  1.0000
  H   H511      1.0  0.76340  0.23251  0.65523  1.0000
  H   H512      1.0  0.89825  0.27470  0.66512  1.0000
  H   H513      1.0  0.67650  0.02190  0.67149  1.0000
  C   C292      1.0  0.83011  0.17550  0.67099  1.0000
  H   H514      1.0  0.87079  0.11228  0.66673  1.0000
  C   C293      1.0  0.93935  0.20824  0.44233  1.0000
  H   H515      1.0  0.64738  0.97961  0.43081  1.0000
  H   H516      1.0  0.86509  0.32844  0.67748  1.0000
  H   H517      1.0  0.57742  0.97616  0.36999  1.0000
  H   H518      1.0  0.49636  0.97250  0.35914  1.0000
  C   C294      1.0  0.88914  0.14241  0.67991  1.0000
  H   H519      1.0  0.81338  0.42830  0.94323  1.0000
  C   C295      1.0  0.61088  0.43701  0.94109  1.0000
  C   C296      1.0  0.58786  0.42211  0.91939  1.0000
  C   C297      1.0  0.54022  0.37867  0.91736  1.0000
  C   C298      1.0  0.51456  0.34966  0.93695  1.0000
  C   C299      1.0  0.53718  0.36518  0.95870  1.0000
  C   C300      1.0  0.58510  0.40828  0.96068  1.0000
  C   C301      1.0  0.72406  0.46612  0.85223  1.0000
  H   H520      1.0  0.52328  0.36700  0.90042  1.0000
  S   S63       1.0  0.45532  0.29398  0.93299  1.0000
  H   H521      1.0  0.60246  0.41918  0.97757  1.0000
  C   C302      1.0  0.76900  0.32016  0.87605  1.0000
  H   H522      1.0  0.62185  0.35728  0.90994  1.0000
  H   H523      1.0  0.51815  0.34344  0.97394  1.0000
  H   H524      1.0  0.79628  0.40967  0.89410  1.0000
  C   C303      1.0  0.73325  0.33605  0.88608  1.0000
  H   H525      1.0  0.68344  0.38978  0.88117  1.0000
  C   C304      1.0  0.76087  0.38157  0.90262  1.0000
  N   N18       1.0  0.73228  0.40651  0.91096  1.0000
  H   H526      1.0  0.79833  0.35102  0.86542  1.0000
  H   H527      1.0  0.49522  0.11742  0.92486  1.0000
  C   C305      1.0  0.76827  0.45357  0.92407  1.0000
  H   H528      1.0  0.70242  0.34990  0.93815  1.0000
  H   H529      1.0  0.74810  0.28665  0.86474  1.0000
  H   H530      1.0  0.90603  0.21790  0.68640  1.0000
  H   H531      1.0  0.87148  0.12756  0.69706  1.0000
  H   H532      1.0  0.56576  0.27601  0.92735  1.0000
  H   H533      1.0  0.71614  0.34460  0.87121  1.0000
  H   H534      1.0  0.60735  0.44296  0.90407  1.0000
  C   C306      1.0  0.81116  0.23162  0.69483  1.0000
  H   H535      1.0  0.70500  0.43034  0.84227  1.0000
  H   H536      1.0  0.77284  0.36741  0.91761  1.0000
  C   C307      1.0  0.78994  0.44544  0.94689  1.0000
  C   C308      1.0  0.84620  0.27293  0.73368  1.0000
  C   C309      1.0  0.69084  0.37250  0.92746  1.0000
  H   H537      1.0  0.87858  0.28632  0.74554  1.0000
  H   H538      1.0  0.69060  0.44067  0.89832  1.0000
  H   H539      1.0  0.70422  0.30322  0.89579  1.0000
  H   H540      1.0  0.78688  0.31014  0.89016  1.0000
  H   H541      1.0  0.64123  0.31340  0.90231  1.0000
  C   C310      1.0  0.60346  0.29921  0.93501  1.0000
  H   H542      1.0  0.89053  0.28319  0.70341  1.0000
  H   H543      1.0  0.60018  0.32011  0.95002  1.0000
  H   H544      1.0  0.68333  0.39558  0.94008  1.0000
  H   H545      1.0  0.86319  0.22145  0.71653  1.0000
  H   H546      1.0  0.81266  0.24305  0.74269  1.0000
  H   H547      1.0  0.61677  0.27370  0.94119  1.0000
  H   H548      1.0  0.84052  0.30517  0.72971  1.0000
  C   C311      1.0  0.74992  0.46017  0.87355  1.0000
  C   C312      1.0  0.71143  0.42263  0.89121  1.0000
  C   C313      1.0  0.63904  0.33577  0.91680  1.0000
  H   H549      1.0  0.78114  0.19756  0.70359  1.0000
  C   C314      1.0  0.85631  0.25236  0.71143  1.0000
  H   H550      1.0  0.77576  0.44756  0.86737  1.0000
  H   H551      1.0  0.75999  0.42075  0.95917  1.0000
  H   H552      1.0  0.79706  0.25865  0.69417  1.0000
  H   H553      1.0  0.52679  0.46843  0.92780  1.0000
  H   H554      1.0  0.71177  0.16679  0.68223  1.0000
  H   H555      1.0  0.80836  0.14854  0.68511  1.0000
  H   H556      1.0  0.53725  0.46599  0.88133  1.0000
  C   C315      1.0  0.45999  0.46144  0.91205  1.0000
  C   C316      1.0  0.45459  0.10355  0.92574  1.0000
  H   H557      1.0  0.46577  0.45770  0.89338  1.0000
  H   H558      1.0  0.92895  0.15289  0.68092  1.0000
  H   H559      1.0  0.52343  0.92221  0.30747  1.0000
  C   C317      1.0  0.58804  0.95131  0.27233  1.0000
  H   H560      1.0  0.55218  0.91721  0.26781  1.0000
  H   H561      1.0  0.56403  0.86186  0.32186  1.0000
  H   H562      1.0  0.54777  0.73556  0.33475  1.0000
  H   H563      1.0  0.50417  0.80487  0.32358  1.0000
  H   H564      1.0  0.60212  0.82632  0.34669  1.0000
  S   S64       1.0  0.67428  0.96881  0.34505  1.0000
  C   C318      1.0  0.54511  0.82029  0.32393  1.0000
  H   H565      1.0  0.55610  0.80474  0.30910  1.0000
  H   H566      1.0  0.52425  0.65427  0.33831  1.0000
  H   H567      1.0  0.58400  0.95513  0.32010  1.0000
  H   H568      1.0  0.60645  0.97137  0.25604  1.0000
  C   C319      1.0  0.55517  0.96061  0.31131  1.0000
  H   H569      1.0  0.61272  0.93985  0.28110  1.0000
  H   H570      1.0  0.47963  0.91928  0.34148  1.0000
  C   C320      1.0  0.56088  0.80763  0.34689  1.0000
  H   H571      1.0  0.48202  0.96841  0.29980  1.0000
  H   H572      1.0  0.95073  0.55104  0.08097  1.0000
  Fe  Fe33      1.0  0.64858  0.72240  0.49189  1.0000
  S   S65       1.0  0.57323  0.71318  0.50016  1.0000
  S   S66       1.0  0.66974  0.67252  0.51338  1.0000
  Fe  Fe34      1.0  0.66452  0.79678  0.45159  1.0000
  S   S67       1.0  0.59113  0.79219  0.45805  1.0000
  S   S68       1.0  0.71835  0.84900  0.42365  1.0000
  Fe  Fe35      1.0  0.61246  0.79764  0.49568  1.0000
  S   S69       1.0  0.60694  0.84820  0.52285  1.0000
  Fe  Fe36      1.0  0.55904  0.70770  0.46160  1.0000
  H   H573      1.0  0.65481  0.93181  0.63491  1.0000
  S   S70       1.0  0.68788  0.80700  0.48925  1.0000
  S   S71       1.0  0.63250  0.71242  0.45333  1.0000
  Fe  Fe37      1.0  0.82225  0.66034  0.62244  1.0000
  S   S72       1.0  0.75820  0.58140  0.62189  1.0000
  S   S73       1.0  0.82623  0.71708  0.59534  1.0000
  Fe  Fe38      1.0  0.86849  0.64047  0.66629  1.0000
  S   S74       1.0  0.80561  0.55954  0.66770  1.0000
  Fe  Fe39      1.0  0.81419  0.55623  0.62902  1.0000
  Fe  Fe40      1.0  0.75623  0.59239  0.66027  1.0000
  C   C321      1.0  0.69515  0.75870  0.59183  1.0000
  S   S75       1.0  0.87950  0.63592  0.62775  1.0000
  S   S76       1.0  0.81771  0.67271  0.66089  1.0000
  H   H574      1.0  0.47578  0.84014  0.56315  1.0000
  H   H575      1.0  0.65088  0.65630  0.59587  1.0000
  H   H576      1.0  0.81907  0.90947  0.47403  1.0000
  H   H577      1.0  0.88109  0.66880  0.57588  1.0000
  C   C322      1.0  0.62064  0.91496  0.62389  1.0000
  H   H578      1.0  0.52039  0.66308  0.39173  1.0000
  H   H579      1.0  0.82546  0.53458  0.55792  1.0000
  C   C323      1.0  0.74342  0.91312  0.38615  1.0000
  C   C324      1.0  0.70602  0.88304  0.40221  1.0000
  C   C325      1.0  0.66018  0.88131  0.40100  1.0000
  H   H580      1.0  0.77920  0.91503  0.38699  1.0000
  H   H581      1.0  0.63186  0.85980  0.41377  1.0000
  C   C326      1.0  0.64195  0.91427  0.51938  1.0000
  C   C327      1.0  0.68915  0.94249  0.52964  1.0000
  H   H582      1.0  0.61560  0.90601  0.38271  1.0000
  C   C328      1.0  0.61866  0.93949  0.51028  1.0000
  H   H583      1.0  0.70697  0.92323  0.53716  1.0000
  N   N19       1.0  0.55012  0.73265  0.37214  1.0000
  H   H584      1.0  0.58172  0.91807  0.50293  1.0000
  C   C329      1.0  0.71277  0.68703  0.53666  1.0000
  C   C330      1.0  0.75660  0.73376  0.53863  1.0000
  C   C331      1.0  0.79090  0.74238  0.55663  1.0000
  C   C332      1.0  0.78177  0.70466  0.57301  1.0000
  C   C333      1.0  0.73740  0.65849  0.57138  1.0000
  C   C334      1.0  0.70356  0.64949  0.55316  1.0000
  H   H585      1.0  0.76457  0.76293  0.52600  1.0000
  H   H586      1.0  0.82494  0.77840  0.55776  1.0000
  H   H587      1.0  0.72900  0.62993  0.58432  1.0000
  H   H588      1.0  0.66967  0.61336  0.55201  1.0000
  C   C335      1.0  0.59525  0.60636  0.61989  1.0000
  C   C336      1.0  0.64267  0.70168  0.62359  1.0000
  C   C337      1.0  0.73301  0.75466  0.62852  1.0000
  C   C338      1.0  0.78231  0.80557  0.62581  1.0000
  C   C339      1.0  0.64429  0.65463  0.61482  1.0000
  C   C340      1.0  0.82329  0.80696  0.64104  1.0000
  H   H589      1.0  0.72524  0.79779  0.58782  1.0000
  H   H590      1.0  0.63761  0.69717  0.64269  1.0000
  H   H591      1.0  0.72636  0.74451  0.64725  1.0000
  H   H592      1.0  0.74066  0.72606  0.62062  1.0000
  H   H593      1.0  0.79521  0.81065  0.60749  1.0000
  H   H594      1.0  0.67414  0.65116  0.62375  1.0000
  H   H595      1.0  0.80162  0.58906  0.57728  1.0000
  H   H596      1.0  0.74530  0.48595  0.57181  1.0000
  C   C341      1.0  0.68552  0.95899  0.59461  1.0000
  H   H597      1.0  0.45331  0.57927  0.35714  1.0000
  H   H598      1.0  0.66173  0.56292  0.51458  1.0000
  H   H599      1.0  0.53860  0.90138  0.39503  1.0000
  C   C342      1.0  0.87608  0.63622  0.56537  1.0000
  C   C343      1.0  0.76391  0.48098  0.52227  1.0000
  H   H600      1.0  0.64178  0.78672  0.62120  1.0000
  H   H601      1.0  0.63096  0.83150  0.65441  1.0000
  H   H602      1.0  0.82941  0.77515  0.63675  1.0000
  H   H603      1.0  0.89738  0.65095  0.54898  1.0000
  H   H604      1.0  0.49042  0.75774  0.43346  1.0000
  C   C344      1.0  0.60471  0.74859  0.37115  1.0000
  C   C345      1.0  0.62467  0.73125  0.39171  1.0000
  C   C346      1.0  0.67745  0.74159  0.38683  1.0000
  C   C347      1.0  0.51787  0.67615  0.37406  1.0000
  H   H605      1.0  0.67000  0.51732  0.55481  1.0000
  H   H606      1.0  0.60116  0.69048  0.39542  1.0000
  H   H607      1.0  0.62614  0.75248  0.40757  1.0000
  N   N20       1.0  0.63163  0.94094  0.60049  1.0000
  H   H608      1.0  0.85875  0.84273  0.63806  1.0000
  C   C348      1.0  0.48365  0.77412  0.41764  1.0000
  H   H609      1.0  0.70268  0.78203  0.38268  1.0000
  H   H610      1.0  0.69218  0.73225  0.40245  1.0000
  H   H611      1.0  0.60640  0.91538  0.43943  1.0000
  C   C349      1.0  0.70087  0.91796  0.59404  1.0000
  S   S77       1.0  0.82212  0.49977  0.60498  1.0000
  H   H612      1.0  0.52671  0.86056  0.59840  1.0000
  H   H613      1.0  0.61329  0.92105  0.56439  1.0000
  H   H614      1.0  0.60308  0.87013  0.58206  1.0000
  H   H615      1.0  0.68195  0.89108  0.57961  1.0000
  H   H616      1.0  0.89140  0.61596  0.57530  1.0000
  H   H617      1.0  0.68431  0.81601  0.55623  1.0000
  H   H618      1.0  0.49599  0.57662  0.37769  1.0000
  N   N21       1.0  0.68747  0.75198  0.61772  1.0000
  C   C350      1.0  0.65133  0.90806  0.38354  1.0000
  H   H619      1.0  0.83936  0.56889  0.53146  1.0000
  H   H620      1.0  0.54905  0.74140  0.40929  1.0000
  C   C351      1.0  0.54316  0.88550  0.58313  1.0000
  H   H621      1.0  0.77819  0.83818  0.63079  1.0000
  H   H622      1.0  0.69670  0.87781  0.65189  1.0000
  C   C352      1.0  0.73485  0.94051  0.36885  1.0000
  H   H623      1.0  0.56679  0.65089  0.35851  1.0000
  H   H624      1.0  0.73855  0.57592  0.53318  1.0000
  H   H625      1.0  0.71691  0.80980  0.66081  1.0000
  C   C353      1.0  0.67391  0.54861  0.49970  1.0000
  H   H626      1.0  0.60785  0.69949  0.61708  1.0000
  H   H627      1.0  0.70623  0.83018  0.61921  1.0000
  H   H628      1.0  0.70170  0.58122  0.48934  1.0000
  C   C354      1.0  0.51461  0.91001  0.38391  1.0000
  C   C355      1.0  0.68848  0.93772  0.36730  1.0000
  C   C356      1.0  0.51639  0.85437  0.56167  1.0000
  H   H629      1.0  0.62467  0.76006  0.58629  1.0000
  H   H630      1.0  0.66505  0.91938  0.46874  1.0000
  C   C357      1.0  0.54112  0.75613  0.39321  1.0000
  H   H631      1.0  0.62808  0.79037  0.37097  1.0000
  H   H632      1.0  0.69381  0.93373  0.44116  1.0000
  C   C358      1.0  0.67879  0.79318  0.62681  1.0000
  C   C359      1.0  0.67999  0.79971  0.65349  1.0000
  H   H633      1.0  0.65126  0.76473  0.66192  1.0000
  C   C360      1.0  0.59965  0.90453  0.58185  1.0000
  C   C361      1.0  0.64839  0.74775  0.57741  1.0000
  H   H634      1.0  0.68448  0.76216  0.54352  1.0000
  H   H635      1.0  0.70939  0.73455  0.58479  1.0000
  H   H636      1.0  0.62813  0.76521  0.54416  1.0000
  C   C362      1.0  0.66909  0.84159  0.65998  1.0000
  H   H637      1.0  0.48236  0.87387  0.37802  1.0000
  H   H638      1.0  0.62516  0.70657  0.57426  1.0000
  H   H639      1.0  0.56402  0.60637  0.61049  1.0000
  C   C363      1.0  0.66249  0.77448  0.55395  1.0000
  H   H640      1.0  0.61008  0.87471  0.62171  1.0000
  H   H641      1.0  0.50097  0.93083  0.39460  1.0000
  C   C364      1.0  0.82071  0.60127  0.56036  1.0000
  H   H642      1.0  0.67741  0.71815  0.37213  1.0000
  S   S78       1.0  0.68258  0.56723  0.67834  1.0000
  H   H643      1.0  0.59797  0.57324  0.61413  1.0000
  H   H644      1.0  0.47788  0.66468  0.37205  1.0000
  H   H645      1.0  0.69138  0.89670  0.61053  1.0000
  H   H646      1.0  0.56759  0.79719  0.39357  1.0000
  S   S79       1.0  0.49152  0.65510  0.43853  1.0000
  C   C365      1.0  0.67984  0.94859  0.45489  1.0000
  H   H647      1.0  0.81981  0.92158  0.44344  1.0000
  C   C366      1.0  0.81268  0.55479  0.54631  1.0000
  H   H648      1.0  0.58723  0.60261  0.63881  1.0000
  H   H649      1.0  0.72115  0.55454  0.57359  1.0000
  C   C367      1.0  0.48761  0.74752  0.39599  1.0000
  H   H650      1.0  0.81318  0.80467  0.65968  1.0000
  H   H651      1.0  0.80745  0.62395  0.55107  1.0000
  C   C368      1.0  0.56523  0.87989  0.65957  1.0000
  H   H652      1.0  0.54628  0.90774  0.62956  1.0000
  H   H653      1.0  0.53536  0.91699  0.58406  1.0000
  C   C369      1.0  0.75695  0.94135  0.59026  1.0000
  C   C370      1.0  0.58046  0.91685  0.63931  1.0000
  C   C371      1.0  0.69571  0.51581  0.56770  1.0000
  H   H654      1.0  0.53044  0.87780  0.54575  1.0000
  H   H655      1.0  0.46011  0.70680  0.39795  1.0000
  H   H656      1.0  0.52221  0.82156  0.55996  1.0000
  H   H657      1.0  0.61373  0.73609  0.35462  1.0000
  H   H658      1.0  0.76672  0.91117  0.58908  1.0000
  C   C372      1.0  0.63594  0.95293  0.44557  1.0000
  H   H659      1.0  0.54648  0.84042  0.65319  1.0000
  H   H660      1.0  0.75091  0.92441  0.46506  1.0000
  H   H661      1.0  0.51101  0.81512  0.41698  1.0000
  C   C373      1.0  0.54460  0.94176  0.36312  1.0000
  H   H662      1.0  0.54965  0.82468  0.36092  1.0000
  C   C374      1.0  0.74415  0.54886  0.52261  1.0000
  C   C375      1.0  0.82547  0.93873  0.46096  1.0000
  H   H663      1.0  0.77412  0.57296  0.51006  1.0000
  C   C376      1.0  0.69606  0.51680  0.50827  1.0000
  H   H664      1.0  0.47684  0.76230  0.38089  1.0000
  H   H665      1.0  0.64558  0.50472  0.59633  1.0000
  H   H666      1.0  0.76864  0.96353  0.57391  1.0000
  N   N22       1.0  0.76067  0.51943  0.53751  1.0000
  C   C377      1.0  0.78901  0.95775  0.46516  1.0000
  C   C378      1.0  0.72509  0.49179  0.55728  1.0000
  C   C379      1.0  0.66390  0.48516  0.58833  1.0000
  H   H667      1.0  0.68724  0.48086  0.60172  1.0000
  H   H668      1.0  0.61991  0.96559  0.45949  1.0000
  H   H669      1.0  0.53902  0.88439  0.67114  1.0000
  H   H670      1.0  0.59827  0.88720  0.66996  1.0000
  C   C380      1.0  0.52853  0.64460  0.35637  1.0000
  H   H671      1.0  0.59575  0.95533  0.64669  1.0000
  H   H672      1.0  0.64094  0.52535  0.48862  1.0000
  C   C381      1.0  0.49240  0.58829  0.35986  1.0000
  H   H673      1.0  0.67121  0.84693  0.67903  1.0000
  C   C382      1.0  0.53671  0.74969  0.35012  1.0000
  H   H674      1.0  0.78659  0.49942  0.50647  1.0000
  H   H675      1.0  0.70484  0.50101  0.49278  1.0000
  H   H676      1.0  0.76384  0.96303  0.35647  1.0000
  H   H677      1.0  0.55777  0.91930  0.35351  1.0000
  H   H678      1.0  0.77788  0.96648  0.60496  1.0000
  H   H679      1.0  0.50093  0.56624  0.34725  1.0000
  H   H680      1.0  0.49558  0.73265  0.34862  1.0000
  H   H681      1.0  0.66728  0.48485  0.51855  1.0000
  H   H682      1.0  0.82709  0.47536  0.53623  1.0000
  H   H683      1.0  0.86453  0.97008  0.46254  1.0000
  C   C383      1.0  0.51220  0.95531  0.34749  1.0000
  Fe  Fe41      1.0  0.65098  0.87681  0.72467  1.0000
  S   S80       1.0  0.57163  0.81542  0.71861  1.0000
  H   H684      1.0  0.53848  0.51932  0.86720  1.0000
  Fe  Fe42      1.0  0.66368  0.81516  0.76459  1.0000
  S   S81       1.0  0.58512  0.75103  0.76071  1.0000
  S   S82       1.0  0.72246  0.81328  0.78835  1.0000
  Fe  Fe43      1.0  0.60188  0.76246  0.72240  1.0000
  S   S83       1.0  0.57943  0.69863  0.69666  1.0000
  Fe  Fe44      1.0  0.56180  0.81026  0.75743  1.0000
  C   C384      1.0  0.60167  0.51093  0.86045  1.0000
  S   S84       1.0  0.68137  0.82358  0.72616  1.0000
  S   S85       1.0  0.64043  0.87435  0.76359  1.0000
  Fe  Fe45      1.0  0.74199  0.64901  0.89381  1.0000
  S   S86       1.0  0.72831  0.57163  0.88495  1.0000
  S   S87       1.0  0.68929  0.66975  0.87541  1.0000
  Fe  Fe46      1.0  0.82009  0.66352  0.93145  1.0000
  S   S88       1.0  0.81053  0.58726  0.92456  1.0000
  S   S89       1.0  0.87654  0.71895  0.95776  1.0000
  Fe  Fe47      1.0  0.81177  0.60758  0.88704  1.0000
  S   S90       1.0  0.85427  0.59183  0.85954  1.0000
  Fe  Fe48      1.0  0.72748  0.55852  0.92329  1.0000
  S   S91       1.0  0.82557  0.68554  0.89359  1.0000
  S   S92       1.0  0.73713  0.63440  0.93244  1.0000
  C   C385      1.0  0.91572  0.70948  0.97736  1.0000
  H   H685      1.0  0.66458  0.62704  0.77949  1.0000
  H   H686      1.0  0.59817  0.59326  0.98294  1.0000
  H   H687      1.0  0.79120  0.72139  0.71742  1.0000
  C   C386      1.0  0.91469  0.66344  0.97908  1.0000
  C   C387      1.0  0.91907  0.63397  0.85712  1.0000
  H   H688      1.0  0.55237  0.67651  0.87094  1.0000
  C   C388      1.0  0.66297  0.68847  0.68914  1.0000
  H   H689      1.0  0.49654  0.54305  0.88930  1.0000
  C   C389      1.0  0.71231  0.77325  0.81265  1.0000
  C   C390      1.0  0.75369  0.77738  0.82473  1.0000
  C   C391      1.0  0.74749  0.74536  0.84359  1.0000
  C   C392      1.0  0.69964  0.70922  0.85089  1.0000
  C   C393      1.0  0.65829  0.70521  0.83887  1.0000
  C   C394      1.0  0.66451  0.73679  0.81983  1.0000
  H   H690      1.0  0.79080  0.80575  0.81955  1.0000
  H   H691      1.0  0.77963  0.74940  0.85282  1.0000
  H   H692      1.0  0.62109  0.67761  0.84433  1.0000
  H   H693      1.0  0.63228  0.73315  0.81080  1.0000
  S   S93       1.0  0.50026  0.81220  0.77975  1.0000
  C   C395      1.0  0.88959  0.81498  0.78725  1.0000
  H   H694      1.0  0.69940  0.59931  0.75206  1.0000
  H   H695      1.0  0.74263  0.56119  0.72744  1.0000
  H   H696      1.0  0.76688  0.73010  0.78707  1.0000
  H   H697      1.0  0.63848  0.68289  0.74295  1.0000
  C   C396      1.0  0.93231  0.79684  0.84047  1.0000
  C   C397      1.0  0.61130  0.66473  0.69294  1.0000
  H   H698      1.0  0.64681  0.57727  0.98290  1.0000
  C   C398      1.0  0.72756  0.63672  0.74497  1.0000
  H   H699      1.0  0.88877  0.63191  0.96858  1.0000
  N   N23       1.0  0.54789  0.54319  0.91508  1.0000
  C   C399      1.0  0.52233  0.56778  0.90295  1.0000
  H   H700      1.0  0.68513  0.72906  0.68987  1.0000
  C   C400      1.0  0.57774  0.57737  0.93488  1.0000
  C   C401      1.0  0.58352  0.53748  0.89925  1.0000
  H   H701      1.0  0.93006  0.58634  0.83323  1.0000
  C   C402      1.0  0.55692  0.61881  0.89075  1.0000
  C   C403      1.0  0.60311  0.55682  0.95133  1.0000
  C   C404      1.0  0.50988  0.49274  0.92530  1.0000
  H   H702      1.0  0.57566  0.58376  0.76931  1.0000
  C   C405      1.0  0.62703  0.59174  0.97209  1.0000
  H   H703      1.0  0.87002  0.79197  0.80262  1.0000
  H   H704      1.0  0.81033  0.70790  0.82177  1.0000
  H   H705      1.0  0.55363  0.58674  0.94571  1.0000
  H   H706      1.0  0.60850  0.61386  0.92826  1.0000
  H   H707      1.0  0.61519  0.57506  0.89441  1.0000
  C   C406      1.0  0.58291  0.61222  0.69170  1.0000
  H   H708      1.0  0.63309  0.55456  0.94197  1.0000
  H   H709      1.0  0.80042  0.51323  0.96435  1.0000
  H   H710      1.0  0.58305  0.64769  0.90307  1.0000
  H   H711      1.0  0.57878  0.61384  0.87681  1.0000
  H   H712      1.0  0.82457  0.81984  0.77711  1.0000
  H   H713      1.0  0.57657  0.51886  0.95820  1.0000
  S   S94       1.0  0.67358  0.94848  0.70309  1.0000
  H   H714      1.0  0.86793  0.87116  0.79499  1.0000
  H   H715      1.0  0.91431  0.66795  0.80275  1.0000
  C   C407      1.0  0.52668  0.63997  0.87943  1.0000
  H   H716      1.0  0.90773  0.78175  0.87632  1.0000
  H   H717      1.0  0.90404  0.80773  0.83656  1.0000
  H   H718      1.0  0.75223  0.49601  0.84078  1.0000
  C   C408      1.0  0.94791  0.62120  0.84294  1.0000
  H   H719      1.0  0.60132  0.51886  0.90849  1.0000
  C   C409      1.0  0.94252  0.67922  0.86956  1.0000
  H   H720      1.0  0.88208  0.86811  0.76473  1.0000
  H   H721      1.0  0.95056  0.78558  0.99034  1.0000
  C   C410      1.0  0.56090  0.50646  0.87688  1.0000
  C   C411      1.0  0.67682  0.66128  0.76866  1.0000
  C   C412      1.0  0.94904  0.68738  0.79227  1.0000
  H   H722      1.0  0.49846  0.49781  0.94300  1.0000
  C   C413      1.0  0.68571  0.65946  0.68391  1.0000
  H   H723      1.0  0.80973  0.59729  0.72508  1.0000
  S   S95       1.0  0.67277  0.48882  0.94463  1.0000
  H   H724      1.0  0.93928  0.68357  0.77356  1.0000
  H   H725      1.0  0.92073  0.68950  0.88052  1.0000
  H   H726      1.0  0.54299  0.59356  0.69429  1.0000
  C   C414      1.0  0.80241  0.79611  0.71823  1.0000
  H   H727      1.0  0.50134  0.61370  0.86599  1.0000
  H   H728      1.0  0.91365  0.74898  0.79830  1.0000
  C   C415      1.0  0.58334  0.62062  0.76220  1.0000
  H   H729      1.0  0.67746  0.69046  0.78041  1.0000
  C   C416      1.0  0.79515  0.66958  0.81433  1.0000
  H   H730      1.0  0.78333  0.64220  0.82889  1.0000
  H   H731      1.0  0.82483  0.66751  0.80442  1.0000
  H   H732      1.0  0.58095  0.64395  0.77636  1.0000
  H   H733      1.0  0.55438  0.61373  0.74907  1.0000
  C   C417      1.0  0.94973  0.74994  0.99130  1.0000
  H   H734      1.0  0.65459  0.63039  0.96622  1.0000
  H   H735      1.0  0.50448  0.64661  0.89265  1.0000
  H   H736      1.0  0.72074  0.65600  0.80980  1.0000
  H   H737      1.0  0.82317  0.75775  0.74285  1.0000
  H   H738      1.0  0.88384  0.78908  0.77262  1.0000
  S   S96       1.0  0.92409  0.65544  0.69597  1.0000
  H   H739      1.0  0.85407  0.52184  0.94795  1.0000
  C   C418      1.0  0.94274  0.80489  0.86649  1.0000
  C   C419      1.0  0.60564  0.58341  0.68734  1.0000
  H   H740      1.0  0.73623  0.61808  0.79173  1.0000
  H   H741      1.0  0.49837  0.57368  0.91553  1.0000
  H   H742      1.0  0.77217  0.61349  0.70740  1.0000
  C   C420      1.0  0.82277  0.49550  0.95929  1.0000
  H   H743      1.0  0.62669  0.55090  0.85537  1.0000
  H   H744      1.0  0.80408  0.82444  0.73079  1.0000
  H   H745      1.0  0.62398  0.49616  0.86882  1.0000
  H   H746      1.0  0.72542  0.67776  0.68087  1.0000
  H   H747      1.0  0.83873  0.81236  0.70904  1.0000
  H   H748      1.0  0.71471  0.63678  0.72695  1.0000
  H   H749      1.0  0.77287  0.78797  0.70524  1.0000
  H   H750      1.0  0.80971  0.67308  0.73965  1.0000
  C   C421      1.0  0.79193  0.74786  0.73080  1.0000
  C   C422      1.0  0.77506  0.59956  0.72476  1.0000
  H   H751      1.0  0.71361  0.71394  0.72960  1.0000
  C   C423      1.0  0.75046  0.65661  0.79872  1.0000
  C   C424      1.0  0.74134  0.72407  0.74362  1.0000
  C   C425      1.0  0.77721  0.63572  0.74354  1.0000
  H   H752      1.0  0.73966  0.75400  0.75391  1.0000
  N   N24       1.0  0.72827  0.67904  0.75883  1.0000
  H   H753      1.0  0.80251  0.70797  0.77310  1.0000
  H   H754      1.0  0.78468  0.62291  0.76027  1.0000
  H   H755      1.0  0.63551  0.62362  0.73675  1.0000
  C   C426      1.0  0.86477  0.84555  0.78063  1.0000
  C   C427      1.0  0.63469  0.64801  0.75075  1.0000
  C   C428      1.0  0.76414  0.69585  0.77897  1.0000
  C   C429      1.0  0.65689  0.60663  0.68316  1.0000
  C   C430      1.0  0.94706  0.65804  0.99454  1.0000
  H   H756      1.0  0.58310  0.54274  0.68686  1.0000
  H   H757      1.0  0.58448  0.48861  0.84450  1.0000
  H   H758      1.0  0.94551  0.62210  0.99583  1.0000
  H   H759      1.0  0.91674  0.75611  0.83687  1.0000
  H   H760      1.0  0.76076  0.94770  0.68311  1.0000
  H   H761      1.0  0.77210  0.49793  0.88161  1.0000
  C   C431      1.0  0.94627  0.84983  0.79153  1.0000
  H   H762      1.0  0.95042  0.77077  0.77272  1.0000
  C   C432      1.0  0.95260  0.77187  0.79206  1.0000
  H   H763      1.0  0.95108  0.88078  0.80331  1.0000
  H   H764      1.0  0.69629  0.47712  0.85737  1.0000
  H   H765      1.0  0.83858  0.48892  0.97529  1.0000
  H   H766      1.0  0.80093  0.47874  0.91305  1.0000
  H   H767      1.0  0.75001  0.47578  0.92849  1.0000
  H   H768      1.0  0.94957  0.64119  0.91789  1.0000
