data_image0
_chemical_formula_structural       FeCSHFeS2FeS2FeSFeCS2FeS2FeS2FeSFeS3C3H2C6H4C6H4CH2CH2C6H7C2H3NC4H2C3HC2H21CH8CH3C2H3CH3CH2NH3NC2HC3HC2SH8CHCHC2H5C2HSH2CH4CHCHCH11C5HC2H4CH7CSH3CH2SHFeHSHFeS2FeS2FeSFeS3FeS2FeS2FeSFeS3C2H3C6H4C6H6C2H2C6H8C2H2NCH2CHCHCHC3H4C2HNH6C2H3C2H5CHNC7HC4H14CH3CH14CH9CH6CH3CH2CH5CH3C2H2C2HCH2CH2C2H2CHCHCHC2NH4CH2CH8NCHCH3CH10CH2CNCHC2HCHCHC3H3CH2C2HSHCNHCHC2H2C2H2CH6CH3C3HCHCH2FeS2FeS2FeSFeS3FeS2FeS2FeSFeS3HSHSCFe2HFeHCHFe2S2H2CH4C6H4C6H4C6H4C6H4C6H5C2H3C2H3NC9H17C2HC3H5NHCH3CHC2SCHCH4C2HSCH11C2SH3CFeC2H6C3HNH4CHNC12H28C2HCH2C2H3SH5CSCH10CHC2H3C2H5FeS2FeS2FeSFeS3FeS2FeS2FeSFeS3HS2FeSFeH2FeH2C2H2SH2CH4C6H4C6H2SHC6H4C6H4C6H4C3H3C2H2SH3CHCH2NC2HC3HC4H12CH12CH5CHFeHCH2CHNC7H3CH10CH3C4HC2H6NC6HC2H8CHCH7NC12H26CHFeC2H2CH4CH2CFeC2HNH6C2HSHC2HC2H2CH6NH7C2SCH6SHCH2CH4CH2C2H2C2HFeSHFeS2FeS2FeSFeS3FeS2FeS2FeSFeS3CHC2HC6H4C6H6CH2C6H5C4HC3H3CHNCHCH14C4HCH12CNH3CH2C3HCH2CHCHSHC3H3CH4C2HCH4CH4C2NC4HC3SH19CH3NHC4HCHCH2CH10C2H2CH13NHC9HCH4NH10CH2CH3C4H2C2HCH10CH4CHC2HCHCFeSHFeS2FeS2FeSFeHS2FeS2FeS2FeSFeS3C3NHC6H4C6H4CNCH2C6H5C2H2CH2CHCHNC9HC2H16CH2CH8C4H11CHCHCH4NH2CHCH3CHCH4CH5CH2SCH2SH3CHNHCHCH2CNSCH2CHC2H5C2H3C3SCHC3HC2H10CH2CH2CH7CH6SH3CH4CH2C3H5CH3CH2CH6CH3C3H3CH3C2HCH4CH3FeSCFeS2FeSNFeSFeS3FeS2FeS2FeSFeS3HCH2C6H4C6H5CH3C6H5C2H8CHCH5CHNCH2NC12H28CHC2HCH5CHCH2CHSH8CH3CSHC2HCHC2NC4HC4HCHCH8CH4SHCH2C3H4C2H2CH2C2H2SCHC2H2CH2CH2CH10CH5CH6CH3CH2FeSHFeS2FeSCFeSFeS3FeS2FeS2FeSFeS3C2HC7H3C7H9C6H5C2H2C2HCH4CHNC4H5CH6C2HC5HCNSCH6CHC2H2C2H11NCHC3NHC2HCH6CH2CH11S2HCH3CH3CH2CHCH8NC7H18CH3C3H5CH3CH2CH9CHCHCHCH6C2HCHC2H2C2HC2H3SH2NH5SFeSFe2SHSHCHFeSCFeS2HSHFeSFeS3FeS2FeHSFeSH2S2CHCHC3H3C6H4C6H7C6H4C6H4CH2C4HNC3HCNHC2H2CH2FeHCNH4CSH4C2NC8HC3H31SH4C3HCHC2H5CFeH7CSCH4CHNCH2CH3C2H3CSCHFeC2H10CHSC2HCH11C4H4CHCNC6FeC3H5CH3CH10CH6C2H2CHC2HC3H4CH2CH4C2HSHCHCH4CH3CHCHCH2FeSFeS2CS2HSFeSHFeS2FeSCFeSFeS2HFeS2FeNSFeSFeCS2C2HCNCH4C6H4C6H4C2HC6H4C6H7C2H3C2H5CH3CH5CHNH5C2H5CH2C2HCH2SCSCH2NC12H11CH9CHCH4CH3CHCH4CH3FeHCH4C6H2SHCHSC2H6CH5C2HCHNC7HC3H14C2H2CH5CH3CH5NC8H2C2H16CHNCHFeCH5CHCH2SHC2HFeH5CH3CSCHC3H3CH2SHFeHSHFeS2FeS2FeSFeS3FeS2FeSHFeSFeSHSH3CHC6H4C6H4C3HC7H7CH2CHNHSH5CHCHCH9C2NC12H28C2HCHC4HC2HC2H11CH2SH3CSCNCHC5H3C2HCH12C2H9NH2CHC3HC2H5CH7SC2H4CH3CH2C3H13SFeHSHFeS2FeS2FeSFeS3FeS2FeSHFeSFeSCSH4C7H4C6H4C2H3C6H10NC2HCHCHCH2C2H10CHCHC3HCHC2H3CH2C2HSH7C2H6C2H8SHC2H3NH2C4H3CH4C2H2C2NH2C4H4CH2C2H11CH5CH5C2NHCH5C2HCHCH3C3H2CHCH5CHCH5CH2SH3C3H4FeHSHFeS2FeS2FeSFeS3FeS2FeSHFeSFeS3CH9C6H4C6H5C2H3C6H5CSCHCH5NC4HC2H2CHCH10C2HCH5C3H7CH7C2H2CHNH4SNC12H17C2H5SH2NC12H18CH6CHC2H5CH2CHCHCFeHSCFeS2FeS2FeSFeS3FeS2HS2FeSFeS2C2HCH6C7H4C6H5C2H3C6H4CHNC4HCHC2FeC2H8C2H8NCH8NC12H37C5H5CHCH3CH2C2H4CN2H11CHCHCHCHC2SC2SHCHC2H7SHCH4C2H4CH2C2H4CH2CH5C3H3CH3CHCH8CFeS2FeSCH2FeS2FeS2FeSFeCS2FeS2FeS2FeSFeS2HFeCSH2FeS2H5CHSH2C2H3C6H4C6H5C4H2CH2C6H4C6H7CHCHNCH8CHC4H4CHCH4CH3CHCHNHFeHCHCHCH10CH3NHCH2CH13CHC2SH5C2H2C2H3C3HCH4CH3C2H10C2H5C2HC2NHC2HCHC2H2C2H5CHCH4C3NHCNC12H17C2H2S2H7CHCHCHSH2FeC2H4SCHCHC2H4S2FeSCH2FeS2FeS2FeSFeCS2FeSHFeS2FeSFeS3FeHS2NFeS2H3CHC3HC2HCH2C6H4C6H5C3H6C6H4C6H4CNH5SHC3HCHNHC2HCHC3H5C2H4CH5CSH11CNCH2C7H3C3HSH4CH2C2HCH4CH8NC9H20SH4CHCH9CH3FeH9C2H7CH3CH2CNC7H2CHCH14CFeCH3NC2HCHSH2FeH2C3HC2HCHC2H3C3HCH2CH7SCHC2HCHC2H5CH2FeSHFeCSFeS2FeHFeS3FeS2FeS2FeSFeS3C3H3C2H3C6H3C7H4C2NHSC6H5NC12H16CH11C3N2C3H3C2H3CH10CH9CHCHCH2CH3C2HCHCHC2H8CH4SCH12CHCHC2HCHC4HC2H5CH5CH12C2H2NHC2HCNC2HCH2C2H4CH5SH7CH2CH2C5H4CHFeSHFeCSFeS2FeCFeS3FeS2FeS2FeSFeS3HC2H3C2H2C7H4C6H5CH2C7H5CH4SH3C2H2CH5NCH6C2HCH4CH3CSH6CHCH2C2H8NCHC4HC2H10C2H3CH2CNC6HC5H7CH4C2H2CH2CH6SHNC10HCH11CH16CH4CH6CHCNC2HCH2SH2CH4CH5CHC2H8FeSHFeS2FeS2FeHFeS3FeS2FeS2FeSFeS3CHCH2C3H2C6H4C6H4CH3C6H6C3HCHCHSC2HCHCH4CH8CHCHCNHNCH2NC3H2C4HC2H7CH3CH8CH6NC5HC4HCH21NH8CH3C2HNC4HC7H2SH5CH3CH4CH3CH5CNHCHCH3C2HCH4C2HCH2CH3CH4CH11CHC3H3CH8C2H4CHCH2CHCHNC2H2C2H2CHCH2FeSHFeS2FeS2FeHFeS3FeS2FeS2FeSFeS3C2H4CH2C7H4C6H4C2H2C6HCH3NC9HC2H19CH8CHCH6CH6CH3C2H4SH5C3HCHCH4NCHC4H3CH2SH7CH5CHCH4CH3NHC3HC3HCH4CHCH3CHCH7CH2C2H5C2HCFeHCHFeS2FeS2FeS2FeSFeS3FeS2FeS2FeSFeS3FeS2HCHCH3C2H3CHCH2C6H4C2SC3H4C6H4C6H3C7H6CHNFeC2SC2HC2HCH6C2H2C2H2FeC2HCH5C2HC2NC12H28NC5H4CH7C3H2C2H6CH2C2HCH2CH3CH4CHC3HC2H2CH3C5H2C2H2CHCH4CH4NHC2NC2H2CH2NH8C3HCHCH2CHC3H6FeH2CH2CSH4C4H2SH4CH2NH2CHCHCH4CH6SH3CH3C2H7CH4CH5NH11SCH3CH11CH6C3H10FeH2CFeS2FeS2FeS2FeSFeS3FeS2FeS2FeSFeS3FeS2HFeHCHC3HCH2C2H3C6H4C6HCH2C6H4C6H4C6H5CH2CHC2H6CH3C3H2C2H2CHCH8C3HCHNCHSH3NC6HCH2CH2CH14C2H3NC7H2CHCHCHCH4CH12CH4NC4H15CHCHCHCSCH5CH4SH3FeC2H3SHCH6CHNHC3HCH6SH2CH2CH3CH9CHCHC2H6C2FeHSCFeS2FeS2FeSFeS3FeS2FeS2FeSFeS3C2H7C6H4C6H5C2H2C6H5CNC7HC3H13CH7SH2CH3NC12H32C2H2C2HC2SHCH4C3H6C3H3CH6NHCHNHC2H3CH4SH2CHCHSH3CH4CHC2H4CH3CHCH3C3H3CHCH4CHFeHSHFeS2FeS2FeSFeS3FeS2FeS2FeHFeS3C2H2CSCH2C6H4C6H5C2H2C6H8CHFeNHC4HCH3CH9CHCH20CHNC12H28NHC2HC2HCH6C2HCH3CH4CH7CHCH3CH2NC9H5CHCH2CHC2HSCSH3SCH
_chemical_formula_sum              "Fe256 C2304 S512 H4096 N128"
_cell_length_a       76.6765
_cell_length_b       76.5959
_cell_length_c       42.7476
_cell_angle_alpha    89.7146
_cell_angle_beta     89.7108
_cell_angle_gamma    89.1524

_space_group_name_H-M_alt    "P 1"
_space_group_IT_number       1

loop_
  _space_group_symop_operation_xyz
  'x, y, z'

loop_
  _atom_site_type_symbol
  _atom_site_label
  _atom_site_symmetry_multiplicity
  _atom_site_fract_x
  _atom_site_fract_y
  _atom_site_fract_z
  _atom_site_occupancy
  Fe  Fe1       1.0  0.16169  0.31923  0.05160  1.0000
  C   C1        1.0  0.18219  0.13134  0.23407  1.0000
  S   S1        1.0  0.15701  0.29237  0.03019  1.0000
  H   H1        1.0  0.23813  0.21629  0.10024  1.0000
  Fe  Fe2       1.0  0.16394  0.19004  0.07680  1.0000
  S   S2        1.0  0.17889  0.18286  0.03329  1.0000
  S   S3        1.0  0.16107  0.21753  0.09735  1.0000
  Fe  Fe3       1.0  0.15840  0.15156  0.09502  1.0000
  S   S4        1.0  0.17303  0.14205  0.05233  1.0000
  S   S5        1.0  0.15082  0.12892  0.12708  1.0000
  Fe  Fe4       1.0  0.19257  0.16273  0.06361  1.0000
  S   S6        1.0  0.22187  0.15671  0.05987  1.0000
  Fe  Fe5       1.0  0.15807  0.16254  0.02547  1.0000
  C   C2        1.0  0.09652  0.01053  0.20868  1.0000
  S   S7        1.0  0.17889  0.17100  0.10754  1.0000
  S   S8        1.0  0.14216  0.17106  0.06766  1.0000
  Fe  Fe6       1.0  0.10434  0.09231  0.34775  1.0000
  S   S9        1.0  0.08376  0.10950  0.32554  1.0000
  S   S10       1.0  0.11999  0.09642  0.39339  1.0000
  Fe  Fe7       1.0  0.09869  0.06320  0.29781  1.0000
  S   S11       1.0  0.07801  0.07880  0.27195  1.0000
  S   S12       1.0  0.10734  0.03455  0.29172  1.0000
  Fe  Fe8       1.0  0.09606  0.10158  0.27932  1.0000
  S   S13       1.0  0.09964  0.12433  0.24514  1.0000
  Fe  Fe9       1.0  0.06718  0.08564  0.31953  1.0000
  S   S14       1.0  0.03869  0.08355  0.33657  1.0000
  S   S15       1.0  0.11751  0.08558  0.30184  1.0000
  S   S16       1.0  0.08689  0.06885  0.34510  1.0000
  C   C3        1.0  0.09877  0.02353  0.23158  1.0000
  C   C4        1.0  0.10470  0.01894  0.26147  1.0000
  C   C5        1.0  0.20294  0.10635  0.03718  1.0000
  H   H2        1.0  0.09588  0.03707  0.22618  1.0000
  H   H3        1.0  0.20878  0.11802  0.04814  1.0000
  C   C6        1.0  0.11388  0.12533  0.21229  1.0000
  C   C7        1.0  0.11616  0.14143  0.19686  1.0000
  C   C8        1.0  0.12728  0.14280  0.17057  1.0000
  C   C9        1.0  0.13617  0.12802  0.15935  1.0000
  C   C10       1.0  0.13380  0.11192  0.17467  1.0000
  C   C11       1.0  0.12278  0.11057  0.20105  1.0000
  H   H4        1.0  0.10932  0.15293  0.20535  1.0000
  H   H5        1.0  0.12895  0.15526  0.15900  1.0000
  H   H6        1.0  0.14063  0.10040  0.16619  1.0000
  H   H7        1.0  0.12114  0.09810  0.21263  1.0000
  C   C12       1.0  0.14486  0.14102  0.45097  1.0000
  C   C13       1.0  0.13309  0.14495  0.42658  1.0000
  C   C14       1.0  0.12564  0.13162  0.40831  1.0000
  C   C15       1.0  0.12974  0.11404  0.41427  1.0000
  C   C16       1.0  0.14158  0.11011  0.43855  1.0000
  C   C17       1.0  0.14924  0.12346  0.45646  1.0000
  H   H8        1.0  0.12966  0.15845  0.42180  1.0000
  H   H9        1.0  0.11657  0.13496  0.38985  1.0000
  H   H10       1.0  0.14500  0.09661  0.44332  1.0000
  H   H11       1.0  0.19151  0.27529  0.07108  1.0000
  C   C18       1.0  0.23699  0.15802  0.09139  1.0000
  H   H12       1.0  0.21413  0.22986  0.14951  1.0000
  H   H13       1.0  0.18335  0.31223  0.16574  1.0000
  C   C19       1.0  0.23185  0.16332  0.12139  1.0000
  H   H14       1.0  0.20720  0.15524  0.22991  1.0000
  H   H15       1.0  0.21833  0.16665  0.12594  1.0000
  C   C20       1.0  0.15804  0.27170  0.04935  1.0000
  C   C21       1.0  0.15731  0.27007  0.08196  1.0000
  C   C22       1.0  0.15821  0.25339  0.09613  1.0000
  C   C23       1.0  0.15990  0.23815  0.07801  1.0000
  C   C24       1.0  0.16072  0.23979  0.04542  1.0000
  C   C25       1.0  0.15970  0.25646  0.03121  1.0000
  H   H16       1.0  0.15589  0.28163  0.09622  1.0000
  H   H17       1.0  0.15743  0.25227  0.12133  1.0000
  H   H18       1.0  0.16198  0.22821  0.03116  1.0000
  H   H19       1.0  0.00434  0.08329  0.36385  1.0000
  H   H20       1.0  0.24893  0.12952  0.23657  1.0000
  H   H21       1.0  0.19629  0.13919  0.13804  1.0000
  H   H22       1.0  0.02982  0.15510  0.32212  1.0000
  C   C26       1.0  0.01537  0.09119  0.28821  1.0000
  C   C27       1.0  0.01765  0.08729  0.31991  1.0000
  H   H23       1.0  0.24016  0.16882  0.16850  1.0000
  H   H24       1.0  0.02663  0.09132  0.27292  1.0000
  H   H25       1.0  0.09502  0.12284  0.45056  1.0000
  N   N1        1.0  0.04776  0.14258  0.27066  1.0000
  C   C28       1.0  0.03940  0.13182  0.29624  1.0000
  C   C29       1.0  0.05377  0.13036  0.24501  1.0000
  C   C30       1.0  0.06392  0.15081  0.28401  1.0000
  C   C31       1.0  0.03578  0.15683  0.25827  1.0000
  H   H26       1.0  0.19983  0.30452  0.05723  1.0000
  H   H27       1.0  0.23515  0.29383  0.10348  1.0000
  C   C32       1.0  0.07406  0.16344  0.26207  1.0000
  C   C33       1.0  0.03947  0.12152  0.22556  1.0000
  C   C34       1.0  0.04733  0.10735  0.20449  1.0000
  H   H28       1.0  0.20634  0.10019  0.13848  1.0000
  C   C35       1.0  0.09818  0.12671  0.99912  1.0000
  C   C36       1.0  0.08998  0.17073  0.27867  1.0000
  H   H29       1.0  0.04806  0.12060  0.30291  1.0000
  H   H30       1.0  0.19023  0.26385  0.12500  1.0000
  H   H31       1.0  0.06192  0.13718  0.22746  1.0000
  H   H32       1.0  0.06238  0.11990  0.25505  1.0000
  H   H33       1.0  0.07325  0.14048  0.29211  1.0000
  H   H34       1.0  0.06062  0.15872  0.30496  1.0000
  H   H35       1.0  0.03693  0.16885  0.27267  1.0000
  H   H36       1.0  0.04003  0.16070  0.23427  1.0000
  H   H37       1.0  0.20934  0.26222  0.14730  1.0000
  H   H38       1.0  0.16577  0.16296  0.23261  1.0000
  H   H39       1.0  0.21691  0.27998  0.00898  1.0000
  H   H40       1.0  0.22295  0.12010  0.20719  1.0000
  H   H41       1.0  0.06568  0.17466  0.25481  1.0000
  H   H42       1.0  0.07901  0.15692  0.24070  1.0000
  H   H43       1.0  0.02954  0.11529  0.24050  1.0000
  H   H44       1.0  0.03299  0.13135  0.21018  1.0000
  H   H45       1.0  0.05341  0.09678  0.21884  1.0000
  H   H46       1.0  0.03692  0.10157  0.19002  1.0000
  H   H47       1.0  0.05739  0.11291  0.18866  1.0000
  H   H48       1.0  0.23452  0.27580  0.15762  1.0000
  H   H49       1.0  0.04706  0.03437  0.26510  1.0000
  C   C37       1.0  0.02138  0.13207  0.34660  1.0000
  H   H50       1.0  0.18557  0.17419  0.22304  1.0000
  H   H51       1.0  0.20895  0.11539  0.10651  1.0000
  H   H52       1.0  0.18292  0.14123  0.25301  1.0000
  H   H53       1.0  0.09908  0.15993  0.28548  1.0000
  H   H54       1.0  0.09705  0.17965  0.26263  1.0000
  H   H55       1.0  0.08600  0.17812  0.29988  1.0000
  H   H56       1.0  0.06280  0.01252  0.23401  1.0000
  H   H57       1.0  0.15860  0.12015  0.47437  1.0000
  C   C38       1.0  0.20808  0.14507  0.21147  1.0000
  H   H58       1.0  0.21561  0.12987  0.15549  1.0000
  H   H59       1.0  0.16023  0.25755  0.00599  1.0000
  H   H60       1.0  0.04682  0.14287  0.34142  1.0000
  C   C39       1.0  0.20710  0.28987  0.01671  1.0000
  C   C40       1.0  0.19760  0.31464  0.16644  1.0000
  H   H61       1.0  0.18980  0.11988  0.24286  1.0000
  H   H62       1.0  0.01817  0.13974  0.36789  1.0000
  H   H63       1.0  0.02737  0.12561  0.28779  1.0000
  C   C41       1.0  0.20099  0.11230  0.12753  1.0000
  H   H64       1.0  0.17103  0.18783  0.17669  1.0000
  H   H65       1.0  0.23488  0.19490  0.08451  1.0000
  H   H66       1.0  0.20650  0.21725  0.11683  1.0000
  C   C42       1.0  0.20786  0.29874  0.15445  1.0000
  H   H67       1.0  0.15436  0.13534  0.22161  1.0000
  H   H68       1.0  0.18882  0.10596  0.04303  1.0000
  N   N2        1.0  0.19019  0.13822  0.20424  1.0000
  H   H69       1.0  0.16725  0.14787  0.17965  1.0000
  H   H70       1.0  0.20702  0.30666  0.10694  1.0000
  H   H71       1.0  0.16248  0.11337  0.21653  1.0000
  N   N3        1.0  0.21160  0.27869  0.10584  1.0000
  C   C43       1.0  0.20471  0.26286  0.12281  1.0000
  C   C44       1.0  0.20574  0.27769  0.07217  1.0000
  H   H72       1.0  0.07526  0.11138  0.45966  1.0000
  C   C45       1.0  0.24428  0.16452  0.14553  1.0000
  C   C46       1.0  0.20871  0.24501  0.10716  1.0000
  C   C47       1.0  0.20931  0.29393  0.05142  1.0000
  H   H73       1.0  0.09563  0.09945  0.45635  1.0000
  C   C48       1.0  0.20498  0.22983  0.12945  1.0000
  C   C49       1.0  0.20323  0.29477  0.12004  1.0000
  S   S17       1.0  0.15348  0.15853  0.47373  1.0000
  H   H74       1.0  0.19380  0.28494  0.01216  1.0000
  H   H75       1.0  0.21211  0.26637  0.06028  1.0000
  H   H76       1.0  0.21366  0.15189  0.19073  1.0000
  H   H77       1.0  0.02668  0.11916  0.35411  1.0000
  H   H78       1.0  0.24126  0.25774  0.13399  1.0000
  H   H79       1.0  0.22270  0.29883  0.05483  1.0000
  H   H80       1.0  0.20020  0.24336  0.08642  1.0000
  H   H81       1.0  0.22249  0.24412  0.09929  1.0000
  C   C50       1.0  0.01422  0.03990  0.29388  1.0000
  H   H82       1.0  0.09185  0.01423  0.18571  1.0000
  C   C51       1.0  0.23971  0.13930  0.22641  1.0000
  H   H83       1.0  0.22188  0.30199  0.15623  1.0000
  C   C52       1.0  0.03489  0.14173  0.32692  1.0000
  C   C53       1.0  0.05941  0.00886  0.25836  1.0000
  H   H84       1.0  0.19134  0.23072  0.13835  1.0000
  H   H85       1.0  0.18735  0.11009  0.11998  1.0000
  H   H86       1.0  0.00784  0.18021  0.25139  1.0000
  H   H87       1.0  0.23718  0.27316  0.08569  1.0000
  H   H88       1.0  0.03239  0.00598  0.24757  1.0000
  C   C54       1.0  0.24089  0.27222  0.13525  1.0000
  C   C55       1.0  0.23127  0.27992  0.10628  1.0000
  H   H89       1.0  0.15123  0.17629  0.18605  1.0000
  S   S18       1.0  0.17178  0.32626  0.09892  1.0000
  H   H90       1.0  0.23927  0.15090  0.24193  1.0000
  H   H91       1.0  0.20058  0.32637  0.15206  1.0000
  C   C56       1.0  0.19118  0.12362  0.18068  1.0000
  H   H92       1.0  0.02224  0.05088  0.30230  1.0000
  H   H93       1.0  0.19665  0.11148  0.19143  1.0000
  H   H94       1.0  0.20130  0.31734  0.19100  1.0000
  H   H95       1.0  0.15941  0.19242  0.21254  1.0000
  C   C57       1.0  0.08947  0.11189  0.46438  1.0000
  H   H96       1.0  0.22284  0.30228  0.46972  1.0000
  C   C58       1.0  0.17395  0.16786  0.21308  1.0000
  H   H97       1.0  0.17783  0.12002  0.17316  1.0000
  C   C59       1.0  0.20167  0.12755  0.15033  1.0000
  H   H98       1.0  0.18875  0.29398  0.11822  1.0000
  H   H99       1.0  0.14216  0.11552  0.26115  1.0000
  H   H100      1.0  0.18653  0.15920  0.17088  1.0000
  H   H101      1.0  0.01300  0.14046  0.24600  1.0000
  H   H102      1.0  0.21784  0.12635  0.24675  1.0000
  H   H103      1.0  0.16366  0.10946  0.27445  1.0000
  H   H104      1.0  0.24483  0.14319  0.20310  1.0000
  H   H105      1.0  0.20488  0.28760  0.17013  1.0000
  H   H106      1.0  0.01946  0.02761  0.30431  1.0000
  H   H107      1.0  0.20936  0.09451  0.04719  1.0000
  H   H108      1.0  0.09565  0.12225  0.02346  1.0000
  C   C60       1.0  0.16309  0.12511  0.23156  1.0000
  C   C61       1.0  0.17934  0.15293  0.19045  1.0000
  C   C62       1.0  0.00590  0.16738  0.24001  1.0000
  C   C63       1.0  0.16327  0.18192  0.19595  1.0000
  C   C64       1.0  0.15575  0.12014  0.26367  1.0000
  H   H109      1.0  0.01046  0.15232  0.28149  1.0000
  C   C65       1.0  0.01592  0.15297  0.25743  1.0000
  C   C66       1.0  0.22165  0.13133  0.22331  1.0000
  H   H110      1.0  0.15550  0.13162  0.27946  1.0000
  H   H111      1.0  0.01029  0.16812  0.21523  1.0000
  H   H112      1.0  0.20314  0.13469  0.00013  1.0000
  H   H113      1.0  0.06940  0.03307  0.27682  1.0000
  C   C67       1.0  0.05696  0.02584  0.27656  1.0000
  H   H114      1.0  0.00919  0.13015  0.33318  1.0000
  H   H115      1.0  0.09934  0.14116  0.99917  1.0000
  H   H116      1.0  0.15370  0.32817  0.40004  1.0000
  H   H117      1.0  0.10559  0.32710  0.02607  1.0000
  H   H118      1.0  0.15068  0.33687  0.34448  1.0000
  H   H119      1.0  0.05313  0.02318  0.30120  1.0000
  H   H120      1.0  0.24191  0.21215  0.05898  1.0000
  C   C68       1.0  0.24312  0.20666  0.08299  1.0000
  S   S19       1.0  0.18198  0.33481  0.02657  1.0000
  H   H121      1.0  0.01535  0.03936  0.26800  1.0000
  H   H122      1.0  0.20893  0.30199  0.00276  1.0000
  H   H123      1.0  0.11886  0.12333  0.48949  1.0000
  C   C69       1.0  0.20565  0.10678  0.00174  1.0000
  H   H124      1.0  0.21991  0.10611  0.99738  1.0000
  H   H125      1.0  0.18337  0.12397  0.99315  1.0000
  S   S20       1.0  0.22088  0.33679  0.07791  1.0000
  H   H126      1.0  0.20313  0.30455  0.49245  1.0000
  Fe  Fe10      1.0  0.16790  0.32062  0.54438  1.0000
  H   H127      1.0  0.21044  0.13466  0.69561  1.0000
  S   S21       1.0  0.16940  0.29243  0.52672  1.0000
  H   H128      1.0  0.05313  0.05721  0.84820  1.0000
  Fe  Fe11      1.0  0.17087  0.19113  0.57165  1.0000
  S   S22       1.0  0.18552  0.18648  0.52688  1.0000
  S   S23       1.0  0.16309  0.21756  0.59285  1.0000
  Fe  Fe12      1.0  0.17183  0.15199  0.58869  1.0000
  S   S24       1.0  0.18724  0.14500  0.54519  1.0000
  S   S25       1.0  0.16615  0.12970  0.62281  1.0000
  Fe  Fe13      1.0  0.20310  0.16886  0.55587  1.0000
  S   S26       1.0  0.23267  0.17287  0.55239  1.0000
  Fe  Fe14      1.0  0.16828  0.16292  0.52011  1.0000
  S   S27       1.0  0.14524  0.15974  0.97677  1.0000
  S   S28       1.0  0.18908  0.17450  0.60087  1.0000
  S   S29       1.0  0.15230  0.16894  0.56350  1.0000
  Fe  Fe15      1.0  0.11244  0.09537  0.83239  1.0000
  S   S30       1.0  0.09331  0.11395  0.80978  1.0000
  S   S31       1.0  0.12922  0.09965  0.87662  1.0000
  Fe  Fe16      1.0  0.10103  0.06481  0.78857  1.0000
  S   S32       1.0  0.08113  0.08175  0.76369  1.0000
  S   S33       1.0  0.10164  0.03481  0.78780  1.0000
  Fe  Fe17      1.0  0.10228  0.10213  0.76392  1.0000
  S   S34       1.0  0.10482  0.12122  0.72282  1.0000
  Fe  Fe18      1.0  0.07375  0.09228  0.81094  1.0000
  S   S35       1.0  0.04699  0.09448  0.83480  1.0000
  S   S36       1.0  0.12271  0.08459  0.78636  1.0000
  S   S37       1.0  0.09240  0.07430  0.83592  1.0000
  C   C70       1.0  0.10867  0.02326  0.72703  1.0000
  C   C71       1.0  0.10408  0.01890  0.75778  1.0000
  H   H129      1.0  0.07097  0.12646  0.98764  1.0000
  H   H130      1.0  0.11083  0.03677  0.72086  1.0000
  H   H131      1.0  0.12969  0.10710  0.59922  1.0000
  C   C72       1.0  0.12159  0.12262  0.69419  1.0000
  C   C73       1.0  0.12017  0.13541  0.67054  1.0000
  C   C74       1.0  0.13350  0.13751  0.64803  1.0000
  C   C75       1.0  0.14837  0.12676  0.64890  1.0000
  C   C76       1.0  0.14962  0.11371  0.67209  1.0000
  C   C77       1.0  0.13635  0.11168  0.69472  1.0000
  H   H132      1.0  0.10876  0.14388  0.66987  1.0000
  H   H133      1.0  0.13231  0.14747  0.63014  1.0000
  H   H134      1.0  0.16108  0.10532  0.67293  1.0000
  H   H135      1.0  0.13760  0.10176  0.71271  1.0000
  C   C78       1.0  0.14014  0.14267  0.94998  1.0000
  C   C79       1.0  0.13266  0.14709  0.92087  1.0000
  C   C80       1.0  0.12894  0.13417  0.89838  1.0000
  C   C81       1.0  0.13264  0.11655  0.90466  1.0000
  C   C82       1.0  0.13991  0.11212  0.93393  1.0000
  C   C83       1.0  0.14361  0.12503  0.95643  1.0000
  H   H136      1.0  0.12993  0.16067  0.91549  1.0000
  H   H137      1.0  0.12358  0.13790  0.87595  1.0000
  H   H138      1.0  0.14274  0.09855  0.93925  1.0000
  H   H139      1.0  0.06482  0.01403  0.76008  1.0000
  H   H140      1.0  0.20160  0.23415  0.58608  1.0000
  H   H141      1.0  0.25370  0.12017  0.96119  1.0000
  C   C84       1.0  0.11235  0.11458  0.50660  1.0000
  C   C85       1.0  0.24427  0.15504  0.60538  1.0000
  H   H142      1.0  0.22468  0.26021  0.54782  1.0000
  H   H143      1.0  0.23121  0.14998  0.60740  1.0000
  C   C86       1.0  0.16773  0.27186  0.54598  1.0000
  C   C87       1.0  0.16203  0.27023  0.57700  1.0000
  C   C88       1.0  0.16074  0.25355  0.59100  1.0000
  C   C89       1.0  0.16511  0.23830  0.57422  1.0000
  C   C90       1.0  0.17103  0.23997  0.54335  1.0000
  C   C91       1.0  0.17227  0.25663  0.52935  1.0000
  H   H144      1.0  0.15834  0.28179  0.59002  1.0000
  H   H145      1.0  0.15612  0.25243  0.61486  1.0000
  H   H146      1.0  0.17444  0.22840  0.53011  1.0000
  H   H147      1.0  0.19414  0.27429  0.61291  1.0000
  H   H148      1.0  0.11309  0.09253  0.55384  1.0000
  H   H149      1.0  0.07507  0.04589  0.74019  1.0000
  H   H150      1.0  0.19765  0.09819  0.94093  1.0000
  H   H151      1.0  0.13079  0.27491  0.93196  1.0000
  C   C92       1.0  0.02594  0.09399  0.81739  1.0000
  C   C93       1.0  0.02353  0.09578  0.78510  1.0000
  H   H152      1.0  0.11985  0.27000  0.96824  1.0000
  H   H153      1.0  0.03475  0.09719  0.76989  1.0000
  N   N4        1.0  0.07301  0.12220  0.92008  1.0000
  C   C94       1.0  0.07107  0.10262  0.91984  1.0000
  H   H154      1.0  0.07527  0.14769  0.83304  1.0000
  H   H155      1.0  0.16942  0.10880  0.56483  1.0000
  C   C95       1.0  0.08622  0.12780  0.94396  1.0000
  H   H156      1.0  0.20437  0.26507  0.56547  1.0000
  C   C96       1.0  0.08817  0.09178  0.91633  1.0000
  H   H157      1.0  0.04356  0.05676  0.73740  1.0000
  C   C97       1.0  0.12241  0.31093  0.93135  1.0000
  H   H158      1.0  0.13035  0.30524  0.91192  1.0000
  C   C98       1.0  0.24708  0.33474  0.64846  1.0000
  C   C99       1.0  0.08463  0.07222  0.91851  1.0000
  C   C100      1.0  0.08008  0.14818  0.88326  1.0000
  H   H159      1.0  0.06265  0.09866  0.90002  1.0000
  H   H160      1.0  0.06415  0.09806  0.94125  1.0000
  H   H161      1.0  0.14223  0.09229  0.55549  1.0000
  H   H162      1.0  0.07073  0.04124  0.84525  1.0000
  C   C101      1.0  0.22470  0.29172  0.51683  1.0000
  C   C102      1.0  0.19789  0.28821  0.61262  1.0000
  H   H163      1.0  0.09965  0.12397  0.93644  1.0000
  N   N5        1.0  0.11728  0.11936  0.53956  1.0000
  H   H164      1.0  0.17736  0.10902  0.94762  1.0000
  H   H165      1.0  0.16754  0.09237  0.89962  1.0000
  H   H166      1.0  0.09409  0.09436  0.89319  1.0000
  H   H167      1.0  0.09784  0.09488  0.93459  1.0000
  H   H168      1.0  0.05277  0.03766  0.87175  1.0000
  H   H169      1.0  0.06738  0.15470  0.88821  1.0000
  C   C103      1.0  0.21870  0.26527  0.56978  1.0000
  C   C104      1.0  0.05553  0.13030  0.92827  1.0000
  H   H170      1.0  0.19021  0.29494  0.59419  1.0000
  H   H171      1.0  0.21750  0.25531  0.61853  1.0000
  H   H172      1.0  0.19558  0.31009  0.64500  1.0000
  C   C105      1.0  0.19049  0.11074  0.93684  1.0000
  C   C106      1.0  0.05029  0.01386  0.76004  1.0000
  H   H173      1.0  0.20619  0.20758  0.70076  1.0000
  H   H174      1.0  0.09696  0.06478  0.91428  1.0000
  H   H175      1.0  0.07960  0.06878  0.94212  1.0000
  H   H176      1.0  0.07499  0.06833  0.90059  1.0000
  H   H177      1.0  0.12962  0.32570  0.98867  1.0000
  C   C107      1.0  0.00652  0.09635  0.77257  1.0000
  H   H178      1.0  0.22879  0.15106  0.94783  1.0000
  N   N6        1.0  0.16290  0.17505  0.70288  1.0000
  C   C108      1.0  0.15832  0.17060  0.73641  1.0000
  C   C109      1.0  0.17329  0.19171  0.70105  1.0000
  C   C110      1.0  0.14597  0.17820  0.68563  1.0000
  C   C111      1.0  0.17262  0.16027  0.68706  1.0000
  C   C112      1.0  0.19023  0.15458  0.70159  1.0000
  C   C113      1.0  0.14710  0.15405  0.74163  1.0000
  C   C114      1.0  0.14761  0.18417  0.65095  1.0000
  H   H179      1.0  0.04555  0.01025  0.70923  1.0000
  C   C115      1.0  0.06869  0.05402  0.69358  1.0000
  C   C116      1.0  0.19770  0.13842  0.68513  1.0000
  C   C117      1.0  0.14433  0.15036  0.77646  1.0000
  C   C118      1.0  0.12983  0.18942  0.63758  1.0000
  H   H180      1.0  0.15114  0.18181  0.74726  1.0000
  H   H181      1.0  0.17020  0.16866  0.75074  1.0000
  H   H182      1.0  0.18113  0.19201  0.67898  1.0000
  H   H183      1.0  0.16441  0.20336  0.69955  1.0000
  H   H184      1.0  0.13782  0.18810  0.69826  1.0000
  H   H185      1.0  0.13814  0.16617  0.68503  1.0000
  H   H186      1.0  0.16428  0.14866  0.68561  1.0000
  H   H187      1.0  0.17562  0.16368  0.66237  1.0000
  H   H188      1.0  0.18885  0.15130  0.72674  1.0000
  H   H189      1.0  0.19990  0.16508  0.69851  1.0000
  H   H190      1.0  0.13395  0.15568  0.73124  1.0000
  H   H191      1.0  0.15348  0.14228  0.73145  1.0000
  H   H192      1.0  0.15288  0.17339  0.63630  1.0000
  H   H193      1.0  0.15628  0.19554  0.64829  1.0000
  C   C119      1.0  0.17902  0.32436  0.94713  1.0000
  H   H194      1.0  0.08256  0.05323  0.68595  1.0000
  H   H195      1.0  0.20331  0.29446  0.54883  1.0000
  H   H196      1.0  0.09252  0.12282  0.88334  1.0000
  C   C120      1.0  0.07917  0.12808  0.88818  1.0000
  H   H197      1.0  0.06034  0.05008  0.67374  1.0000
  H   H198      1.0  0.12963  0.01036  0.53506  1.0000
  H   H199      1.0  0.18869  0.12725  0.68764  1.0000
  H   H200      1.0  0.15699  0.14772  0.78821  1.0000
  H   H201      1.0  0.13758  0.16157  0.78794  1.0000
  H   H202      1.0  0.13605  0.13864  0.77931  1.0000
  H   H203      1.0  0.12063  0.17838  0.63910  1.0000
  H   H204      1.0  0.12428  0.20082  0.65038  1.0000
  H   H205      1.0  0.13135  0.19320  0.61259  1.0000
  H   H206      1.0  0.22054  0.27868  0.50879  1.0000
  H   H207      1.0  0.01372  0.13489  0.89623  1.0000
  H   H208      1.0  0.22029  0.33661  0.63250  1.0000
  H   H209      1.0  0.21986  0.22392  0.60544  1.0000
  H   H210      1.0  0.09010  0.15386  0.89868  1.0000
  C   C121      1.0  0.11086  0.01004  0.70436  1.0000
  H   H211      1.0  0.11056  0.12047  0.60608  1.0000
  H   H212      1.0  0.05477  0.31718  0.77695  1.0000
  H   H213      1.0  0.18973  0.22282  0.71501  1.0000
  H   H214      1.0  0.07093  0.12246  0.86946  1.0000
  H   H215      1.0  0.17778  0.19940  0.74969  1.0000
  H   H216      1.0  0.18727  0.18661  0.96236  1.0000
  H   H217      1.0  0.22006  0.12679  0.91676  1.0000
  H   H218      1.0  0.01834  0.05514  0.79419  1.0000
  H   H219      1.0  0.19979  0.14113  0.65981  1.0000
  C   C122      1.0  0.12265  0.29767  0.95907  1.0000
  H   H220      1.0  0.21996  0.30944  0.55587  1.0000
  H   H221      1.0  0.17809  0.29468  0.64722  1.0000
  H   H222      1.0  0.04792  0.05531  0.79019  1.0000
  H   H223      1.0  0.12739  0.15355  0.52004  1.0000
  H   H224      1.0  0.06555  0.04041  0.78793  1.0000
  H   H225      1.0  0.19398  0.18436  0.73518  1.0000
  C   C123      1.0  0.01116  0.09229  0.83679  1.0000
  H   H226      1.0  0.10691  0.14949  0.50165  1.0000
  H   H227      1.0  0.13500  0.29780  0.97225  1.0000
  H   H228      1.0  0.24911  0.27641  0.59756  1.0000
  C   C124      1.0  0.18763  0.11229  0.90092  1.0000
  H   H229      1.0  0.11243  0.08037  0.60890  1.0000
  H   H230      1.0  0.08608  0.12706  0.50599  1.0000
  C   C125      1.0  0.04094  0.12806  0.90355  1.0000
  H   H231      1.0  0.05049  0.12458  0.95045  1.0000
  H   H232      1.0  0.11201  0.30079  0.97593  1.0000
  H   H233      1.0  0.22039  0.30447  0.60916  1.0000
  H   H234      1.0  0.10875  0.31106  0.92258  1.0000
  H   H235      1.0  0.03244  0.03503  0.82799  1.0000
  C   C126      1.0  0.13694  0.11977  0.54156  1.0000
  H   H236      1.0  0.17733  0.09726  0.86239  1.0000
  H   H237      1.0  0.14117  0.12562  0.56405  1.0000
  H   H238      1.0  0.08541  0.16723  0.84689  1.0000
  C   C127      1.0  0.19139  0.14261  0.94117  1.0000
  C   C128      1.0  0.10762  0.09337  0.61680  1.0000
  H   H239      1.0  0.22477  0.28393  0.62669  1.0000
  H   H240      1.0  0.24368  0.32863  0.67048  1.0000
  C   C129      1.0  0.19259  0.15869  0.96296  1.0000
  C   C130      1.0  0.18002  0.09553  0.88774  1.0000
  H   H241      1.0  0.04454  0.13405  0.88078  1.0000
  C   C131      1.0  0.08504  0.15282  0.84963  1.0000
  H   H242      1.0  0.02000  0.02191  0.78573  1.0000
  H   H243      1.0  0.22411  0.11126  0.94640  1.0000
  C   C132      1.0  0.06597  0.04190  0.72163  1.0000
  H   H244      1.0  0.23913  0.29223  0.51575  1.0000
  H   H245      1.0  0.14084  0.02155  0.56581  1.0000
  C   C133      1.0  0.21769  0.29545  0.55030  1.0000
  C   C134      1.0  0.02389  0.13677  0.91428  1.0000
  H   H246      1.0  0.05025  0.01956  0.82471  1.0000
  H   H247      1.0  0.18254  0.32213  0.92223  1.0000
  C   C135      1.0  0.04657  0.03356  0.82285  1.0000
  H   H248      1.0  0.08645  0.14228  0.94555  1.0000
  C   C136      1.0  0.19754  0.12361  0.98715  1.0000
  H   H249      1.0  0.10906  0.17994  0.51917  1.0000
  C   C137      1.0  0.14010  0.00905  0.55283  1.0000
  H   H250      1.0  0.20588  0.21385  0.74135  1.0000
  C   C138      1.0  0.21775  0.29029  0.60685  1.0000
  C   C139      1.0  0.11328  0.15203  0.52438  1.0000
  N   N7        1.0  0.19983  0.12570  0.95221  1.0000
  H   H251      1.0  0.22130  0.22910  0.56436  1.0000
  H   H252      1.0  0.20574  0.16056  0.97266  1.0000
  H   H253      1.0  0.19654  0.14629  0.91767  1.0000
  H   H254      1.0  0.11468  0.01354  0.68079  1.0000
  C   C140      1.0  0.24429  0.28370  0.57668  1.0000
  H   H255      1.0  0.18933  0.08440  0.89068  1.0000
  H   H256      1.0  0.04676  0.00603  0.78100  1.0000
  C   C141      1.0  0.16624  0.10363  0.54136  1.0000
  H   H257      1.0  0.09534  0.10677  0.56164  1.0000
  H   H258      1.0  0.17157  0.11242  0.52309  1.0000
  H   H259      1.0  0.17826  0.12306  0.89538  1.0000
  H   H260      1.0  0.22968  0.13825  0.98352  1.0000
  H   H261      1.0  0.05681  0.14447  0.93326  1.0000
  H   H262      1.0  0.09576  0.13659  0.55281  1.0000
  H   H263      1.0  0.11166  0.09519  0.64150  1.0000
  H   H264      1.0  0.15858  0.30578  0.94765  1.0000
  N   N8        1.0  0.12833  0.32928  0.93815  1.0000
  C   C142      1.0  0.10606  0.16947  0.53640  1.0000
  H   H265      1.0  0.17383  0.17437  0.93624  1.0000
  C   C143      1.0  0.18563  0.19570  0.72874  1.0000
  H   H266      1.0  0.00483  0.09814  0.74766  1.0000
  H   H267      1.0  0.09661  0.32682  0.96922  1.0000
  H   H268      1.0  0.19999  0.11478  0.88828  1.0000
  C   C144      1.0  0.19756  0.21094  0.72089  1.0000
  H   H269      1.0  0.08609  0.10380  0.51209  1.0000
  H   H270      1.0  0.14919  0.12133  0.97873  1.0000
  H   H271      1.0  0.10733  0.27797  0.93536  1.0000
  H   H272      1.0  0.18759  0.31598  0.96196  1.0000
  H   H273      1.0  0.03824  0.11406  0.89958  1.0000
  H   H274      1.0  0.17709  0.14087  0.93803  1.0000
  H   H275      1.0  0.23746  0.25010  0.59836  1.0000
  H   H276      1.0  0.02567  0.15101  0.91757  1.0000
  H   H277      1.0  0.19908  0.28901  0.66357  1.0000
  H   H278      1.0  0.03827  0.03878  0.71372  1.0000
  C   C145      1.0  0.14655  0.10188  0.53768  1.0000
  H   H279      1.0  0.09314  0.09382  0.61591  1.0000
  H   H280      1.0  0.17267  0.09063  0.53881  1.0000
  C   C146      1.0  0.11005  0.13713  0.54833  1.0000
  N   N9        1.0  0.22461  0.28364  0.57590  1.0000
  C   C147      1.0  0.05642  0.04305  0.84851  1.0000
  H   H281      1.0  0.09815  0.14741  0.84373  1.0000
  C   C148      1.0  0.10984  0.10601  0.56179  1.0000
  C   C149      1.0  0.11533  0.10784  0.59652  1.0000
  H   H282      1.0  0.01928  0.13084  0.93655  1.0000
  C   C150      1.0  0.19241  0.29599  0.64408  1.0000
  H   H283      1.0  0.11580  0.14145  0.57083  1.0000
  C   C151      1.0  0.04678  0.04271  0.73341  1.0000
  H   H284      1.0  0.19647  0.17827  0.92645  1.0000
  C   C152      1.0  0.11996  0.27902  0.94778  1.0000
  C   C153      1.0  0.05784  0.32118  0.80124  1.0000
  C   C154      1.0  0.21606  0.23364  0.58725  1.0000
  H   H285      1.0  0.11726  0.10126  0.50074  1.0000
  H   H286      1.0  0.01284  0.09089  0.86178  1.0000
  H   H287      1.0  0.18356  0.15695  0.98307  1.0000
  C   C155      1.0  0.21875  0.12467  0.94239  1.0000
  H   H288      1.0  0.22149  0.31853  0.50005  1.0000
  H   H289      1.0  0.06561  0.06777  0.69994  1.0000
  C   C156      1.0  0.22315  0.25158  0.59557  1.0000
  C   C157      1.0  0.18721  0.17548  0.94582  1.0000
  H   H290      1.0  0.14231  0.12861  0.52328  1.0000
  S   S38       1.0  0.17559  0.33057  0.59181  1.0000
  H   H291      1.0  0.11216  0.17291  0.55902  1.0000
  C   C158      1.0  0.14768  0.33101  0.93244  1.0000
  N   N10       1.0  0.04287  0.03218  0.76251  1.0000
  H   H292      1.0  0.14426  0.09638  0.51413  1.0000
  C   C159      1.0  0.23119  0.13783  0.95774  1.0000
  H   H293      1.0  0.15730  0.32189  0.97845  1.0000
  C   C160      1.0  0.24830  0.16658  0.58105  1.0000
  C   C161      1.0  0.15995  0.31981  0.95325  1.0000
  H   H294      1.0  0.17662  0.25770  0.50531  1.0000
  H   H295      1.0  0.01739  0.02561  0.74518  1.0000
  C   C162      1.0  0.02337  0.03117  0.76653  1.0000
  C   C163      1.0  0.05114  0.04107  0.79006  1.0000
  H   H296      1.0  0.07141  0.31687  0.80656  1.0000
  H   H297      1.0  0.06975  0.02853  0.71412  1.0000
  C   C164      1.0  0.08333  0.12107  0.97783  1.0000
  H   H298      1.0  0.04885  0.31457  0.81780  1.0000
  H   H299      1.0  0.09169  0.16890  0.53947  1.0000
  H   H300      1.0  0.24987  0.27657  0.55622  1.0000
  H   H301      1.0  0.15280  0.00668  0.54084  1.0000
  H   H302      1.0  0.11077  0.12084  0.99118  1.0000
  H   H303      1.0  0.24825  0.30912  0.59904  1.0000
  C   C165      1.0  0.09256  0.11459  0.49933  1.0000
  H   H304      1.0  0.15114  0.32725  0.90810  1.0000
  H   H305      1.0  0.24953  0.30996  0.55708  1.0000
  H   H306      1.0  0.08285  0.10662  0.97885  1.0000
  C   C166      1.0  0.25275  0.30196  0.57803  1.0000
  C   C167      1.0  0.25026  0.13310  0.95083  1.0000
  C   C168      1.0  0.21759  0.30513  0.49343  1.0000
  H   H307      1.0  0.01550  0.05794  0.75273  1.0000
  C   C169      1.0  0.12413  0.33495  0.97118  1.0000
  H   H308      1.0  0.12265  0.32618  0.87327  1.0000
  C   C170      1.0  0.01366  0.04877  0.77262  1.0000
  H   H309      1.0  0.25272  0.13278  0.92520  1.0000
  H   H310      1.0  0.19958  0.09491  0.99214  1.0000
  Fe  Fe19      1.0  0.06429  0.42322  0.29010  1.0000
  S   S39       1.0  0.07017  0.43829  0.33350  1.0000
  S   S40       1.0  0.03737  0.41595  0.27186  1.0000
  Fe  Fe20      1.0  0.10305  0.42191  0.27031  1.0000
  S   S41       1.0  0.11124  0.43745  0.31243  1.0000
  S   S42       1.0  0.12516  0.41560  0.23604  1.0000
  Fe  Fe21      1.0  0.09337  0.41985  0.33984  1.0000
  S   S43       1.0  0.09800  0.40405  0.38540  1.0000
  Fe  Fe22      1.0  0.08762  0.45442  0.30210  1.0000
  S   S44       1.0  0.08422  0.48423  0.30260  1.0000
  S   S45       1.0  0.08621  0.40370  0.29795  1.0000
  S   S46       1.0  0.08069  0.44001  0.25854  1.0000
  Fe  Fe23      1.0  0.09837  0.56751  0.19388  1.0000
  S   S47       1.0  0.07850  0.57907  0.22661  1.0000
  S   S48       1.0  0.11112  0.54079  0.20334  1.0000
  Fe  Fe24      1.0  0.09723  0.59954  0.14884  1.0000
  S   S49       1.0  0.07668  0.61269  0.17921  1.0000
  S   S50       1.0  0.10404  0.61615  0.10502  1.0000
  Fe  Fe25      1.0  0.09328  0.60406  0.22004  1.0000
  S   S51       1.0  0.09783  0.62328  0.25978  1.0000
  Fe  Fe26      1.0  0.06364  0.58666  0.18308  1.0000
  S   S52       1.0  0.03529  0.57802  0.17718  1.0000
  S   S53       1.0  0.11430  0.59215  0.18997  1.0000
  S   S54       1.0  0.08306  0.57385  0.15022  1.0000
  H   H311      1.0  0.08351  0.40397  0.48838  1.0000
  S   S55       1.0  0.17424  0.36731  0.07307  1.0000
  H   H312      1.0  0.09240  0.34380  0.28981  1.0000
  S   S56       1.0  0.16102  0.37539  0.47122  1.0000
  C   C171      1.0  0.15066  0.36028  0.29688  1.0000
  Fe  Fe27      1.0  0.16315  0.35759  0.02721  1.0000
  Fe  Fe28      1.0  0.19977  0.66473  0.42318  1.0000
  H   H313      1.0  0.12064  0.42728  0.16008  1.0000
  Fe  Fe29      1.0  0.16473  0.65826  0.45908  1.0000
  H   H314      1.0  0.12132  0.63677  0.14771  1.0000
  C   C172      1.0  0.24415  0.38252  0.05588  1.0000
  H   H315      1.0  0.16100  0.38104  0.26625  1.0000
  Fe  Fe30      1.0  0.15396  0.34997  0.09564  1.0000
  Fe  Fe31      1.0  0.16857  0.64982  0.38865  1.0000
  S   S57       1.0  0.16452  0.63150  0.34716  1.0000
  S   S58       1.0  0.18349  0.64081  0.43179  1.0000
  H   H316      1.0  0.08672  0.34065  0.01801  1.0000
  H   H317      1.0  0.11873  0.35613  0.26682  1.0000
  C   C173      1.0  0.08591  0.42971  0.46980  1.0000
  H   H318      1.0  0.22300  0.35979  0.13280  1.0000
  H   H319      1.0  0.11155  0.37807  0.27610  1.0000
  H   H320      1.0  0.16435  0.66726  0.27646  1.0000
  H   H321      1.0  0.14881  0.47143  0.23139  1.0000
  C   C174      1.0  0.11665  0.62573  0.28330  1.0000
  C   C175      1.0  0.13233  0.61697  0.27663  1.0000
  C   C176      1.0  0.14695  0.61918  0.29604  1.0000
  C   C177      1.0  0.14606  0.63014  0.32236  1.0000
  C   C178      1.0  0.13044  0.63912  0.32874  1.0000
  C   C179      1.0  0.11585  0.63694  0.30924  1.0000
  H   H322      1.0  0.13311  0.60839  0.25669  1.0000
  H   H323      1.0  0.15897  0.61216  0.29093  1.0000
  H   H324      1.0  0.12954  0.64758  0.34890  1.0000
  H   H325      1.0  0.10379  0.64387  0.31451  1.0000
  C   C180      1.0  0.12110  0.62105  0.07760  1.0000
  C   C181      1.0  0.11891  0.63538  0.05706  1.0000
  C   C182      1.0  0.13184  0.63972  0.03466  1.0000
  C   C183      1.0  0.14720  0.62968  0.03224  1.0000
  C   C184      1.0  0.14942  0.61540  0.05288  1.0000
  C   C185      1.0  0.13655  0.61113  0.07541  1.0000
  H   H326      1.0  0.10707  0.64320  0.05843  1.0000
  H   H327      1.0  0.12986  0.65075  0.01913  1.0000
  H   H328      1.0  0.16119  0.60747  0.05128  1.0000
  H   H329      1.0  0.13848  0.59999  0.09072  1.0000
  C   C186      1.0  0.11590  0.39610  0.40838  1.0000
  C   C187      1.0  0.13274  0.40281  0.40573  1.0000
  C   C188      1.0  0.14633  0.39625  0.42499  1.0000
  C   C189      1.0  0.14335  0.38296  0.44724  1.0000
  C   C190      1.0  0.12656  0.37613  0.44961  1.0000
  C   C191      1.0  0.11295  0.38275  0.43052  1.0000
  H   H330      1.0  0.13525  0.41317  0.38910  1.0000
  H   H331      1.0  0.15925  0.40163  0.42279  1.0000
  H   H332      1.0  0.12412  0.36563  0.46598  1.0000
  H   H333      1.0  0.10003  0.37738  0.43276  1.0000
  C   C192      1.0  0.12742  0.39855  0.20828  1.0000
  C   C193      1.0  0.14205  0.39835  0.18827  1.0000
  C   C194      1.0  0.14435  0.38518  0.16561  1.0000
  C   C195      1.0  0.13211  0.37191  0.16302  1.0000
  C   C196      1.0  0.11759  0.37201  0.18332  1.0000
  C   C197      1.0  0.11519  0.38528  0.20572  1.0000
  H   H334      1.0  0.15164  0.40851  0.19016  1.0000
  H   H335      1.0  0.15561  0.38524  0.15025  1.0000
  H   H336      1.0  0.10804  0.36181  0.18146  1.0000
  H   H337      1.0  0.10381  0.38532  0.22076  1.0000
  C   C198      1.0  0.09163  0.49958  0.27425  1.0000
  C   C199      1.0  0.08262  0.51561  0.27076  1.0000
  C   C200      1.0  0.08835  0.52835  0.24918  1.0000
  C   C201      1.0  0.10336  0.52530  0.23113  1.0000
  C   C202      1.0  0.11265  0.50949  0.23530  1.0000
  C   C203      1.0  0.10683  0.49670  0.25669  1.0000
  H   H338      1.0  0.07101  0.51812  0.28460  1.0000
  H   H339      1.0  0.08106  0.54044  0.24638  1.0000
  H   H340      1.0  0.12448  0.50718  0.22197  1.0000
  H   H341      1.0  0.11423  0.48471  0.26005  1.0000
  H   H342      1.0  0.13138  0.48892  0.16035  1.0000
  C   C204      1.0  0.01691  0.42035  0.29015  1.0000
  C   C205      1.0  0.01563  0.42793  0.31980  1.0000
  H   H343      1.0  0.16694  0.39018  0.31549  1.0000
  H   H344      1.0  0.02736  0.43127  0.33222  1.0000
  H   H345      1.0  0.21047  0.64521  0.30999  1.0000
  C   C206      1.0  0.01433  0.58808  0.18116  1.0000
  C   C207      1.0  0.13778  0.48706  0.11145  1.0000
  H   H346      1.0  0.02328  0.61419  0.18884  1.0000
  H   H347      1.0  0.23324  0.66658  0.32118  1.0000
  H   H348      1.0  0.21640  0.64897  0.26943  1.0000
  N   N11       1.0  0.10697  0.46272  0.16955  1.0000
  C   C208      1.0  0.11679  0.46698  0.13992  1.0000
  C   C209      1.0  0.09809  0.44526  0.16647  1.0000
  C   C210      1.0  0.09280  0.47652  0.17361  1.0000
  C   C211      1.0  0.11850  0.46307  0.19817  1.0000
  C   C212      1.0  0.12466  0.48553  0.13832  1.0000
  C   C213      1.0  0.07990  0.47348  0.20113  1.0000
  C   C214      1.0  0.10805  0.43043  0.14898  1.0000
  C   C215      1.0  0.09741  0.41370  0.14873  1.0000
  C   C216      1.0  0.06670  0.48854  0.20389  1.0000
  H   H349      1.0  0.10800  0.46572  0.11936  1.0000
  H   H350      1.0  0.09444  0.44004  0.18995  1.0000
  H   H351      1.0  0.08555  0.44691  0.15357  1.0000
  H   H352      1.0  0.08496  0.47785  0.15179  1.0000
  H   H353      1.0  0.09855  0.48958  0.17769  1.0000
  H   H354      1.0  0.12017  0.47673  0.20601  1.0000
  H   H355      1.0  0.11212  0.45634  0.21826  1.0000
  H   H356      1.0  0.11418  0.49545  0.13418  1.0000
  H   H357      1.0  0.08700  0.47252  0.22357  1.0000
  H   H358      1.0  0.07244  0.46133  0.19786  1.0000
  H   H359      1.0  0.08522  0.41566  0.13516  1.0000
  H   H360      1.0  0.10520  0.40300  0.13774  1.0000
  H   H361      1.0  0.09400  0.40965  0.17295  1.0000
  H   H362      1.0  0.07346  0.50113  0.20708  1.0000
  H   H363      1.0  0.05816  0.48636  0.22459  1.0000
  H   H364      1.0  0.11131  0.36885  0.33434  1.0000
  H   H365      1.0  0.16030  0.45115  0.22370  1.0000
  C   C217      1.0  0.14438  0.36475  0.35298  1.0000
  C   C218      1.0  0.13773  0.65351  0.21513  1.0000
  H   H366      1.0  0.11431  0.63266  0.18610  1.0000
  C   C219      1.0  0.14439  0.34517  0.36262  1.0000
  C   C220      1.0  0.15490  0.65533  0.23384  1.0000
  C   C221      1.0  0.12008  0.36238  0.31679  1.0000
  H   H367      1.0  0.15708  0.39882  0.35024  1.0000
  H   H368      1.0  0.23577  0.38073  0.03504  1.0000
  H   H369      1.0  0.14657  0.34657  0.29294  1.0000
  H   H370      1.0  0.12752  0.45733  0.13586  1.0000
  H   H371      1.0  0.02176  0.59031  0.09718  1.0000
  N   N12       1.0  0.13938  0.64527  0.18313  1.0000
  H   H372      1.0  0.19388  0.65049  0.28179  1.0000
  C   C222      1.0  0.14837  0.62773  0.18728  1.0000
  H   H373      1.0  0.11493  0.40828  0.48147  1.0000
  H   H374      1.0  0.08491  0.36513  0.30243  1.0000
  H   H375      1.0  0.08679  0.36036  0.26131  1.0000
  C   C223      1.0  0.09451  0.65765  0.14694  1.0000
  H   H376      1.0  0.09057  0.44283  0.47646  1.0000
  C   C224      1.0  0.15113  0.61661  0.15747  1.0000
  C   C225      1.0  0.16005  0.59913  0.16519  1.0000
  S   S59       1.0  0.14227  0.34151  0.04973  1.0000
  C   C226      1.0  0.14575  0.65657  0.12628  1.0000
  H   H377      1.0  0.15932  0.64238  0.24280  1.0000
  C   C227      1.0  0.12112  0.64253  0.17134  1.0000
  H   H378      1.0  0.16166  0.62934  0.19700  1.0000
  H   H379      1.0  0.14107  0.61973  0.20466  1.0000
  H   H380      1.0  0.12852  0.64596  0.23009  1.0000
  H   H381      1.0  0.05844  0.48940  0.18266  1.0000
  C   C228      1.0  0.01199  0.60601  0.18635  1.0000
  C   C229      1.0  0.24257  0.65015  0.37771  1.0000
  H   H382      1.0  0.15793  0.36929  0.35666  1.0000
  S   S60       1.0  0.16377  0.63392  0.00351  1.0000
  C   C230      1.0  0.13806  0.38869  0.31692  1.0000
  H   H383      1.0  0.16408  0.35909  0.30661  1.0000
  H   H384      1.0  0.07173  0.43070  0.46480  1.0000
  H   H385      1.0  0.15452  0.41597  0.28506  1.0000
  H   H386      1.0  0.13858  0.61379  0.14596  1.0000
  H   H387      1.0  0.15988  0.62337  0.14080  1.0000
  H   H388      1.0  0.15229  0.59159  0.18241  1.0000
  H   H389      1.0  0.16138  0.59125  0.14353  1.0000
  H   H390      1.0  0.17328  0.60122  0.17484  1.0000
  H   H391      1.0  0.10756  0.35065  0.02335  1.0000
  H   H392      1.0  0.11962  0.34817  0.32184  1.0000
  H   H393      1.0  0.02559  0.48467  0.29039  1.0000
  C   C231      1.0  0.10923  0.65915  0.17069  1.0000
  C   C232      1.0  0.02106  0.47223  0.28020  1.0000
  S   S61       1.0  0.14900  0.66571  0.41623  1.0000
  H   H394      1.0  0.13849  0.58650  0.00957  1.0000
  H   H395      1.0  0.14436  0.64319  0.11720  1.0000
  H   H396      1.0  0.13383  0.39285  0.29323  1.0000
  C   C233      1.0  0.11162  0.36432  0.28416  1.0000
  Fe  Fe32      1.0  0.19147  0.34293  0.07390  1.0000
  C   C234      1.0  0.23546  0.35323  0.12958  1.0000
  C   C235      1.0  0.15634  0.41617  0.31083  1.0000
  H   H397      1.0  0.13612  0.37188  0.37037  1.0000
  H   H398      1.0  0.17453  0.35262  0.24913  1.0000
  H   H399      1.0  0.14795  0.34993  0.41248  1.0000
  H   H400      1.0  0.09273  0.42544  0.44805  1.0000
  H   H401      1.0  0.14902  0.47797  0.11515  1.0000
  H   H402      1.0  0.14277  0.50059  0.11033  1.0000
  C   C236      1.0  0.10094  0.33907  0.01368  1.0000
  C   C237      1.0  0.15413  0.34220  0.39338  1.0000
  C   C238      1.0  0.15990  0.66542  0.10685  1.0000
  H   H403      1.0  0.10326  0.66111  0.19421  1.0000
  N   N13       1.0  0.13842  0.36903  0.32008  1.0000
  H   H404      1.0  0.13185  0.66685  0.21322  1.0000
  H   H405      1.0  0.22989  0.64419  0.37616  1.0000
  H   H406      1.0  0.13149  0.48406  0.08878  1.0000
  H   H407      1.0  0.08641  0.64613  0.15223  1.0000
  C   C239      1.0  0.24563  0.66254  0.40087  1.0000
  H   H408      1.0  0.02343  0.47233  0.25455  1.0000
  N   N14       1.0  0.11833  0.56521  0.32001  1.0000
  C   C240      1.0  0.12263  0.57238  0.35188  1.0000
  C   C241      1.0  0.11613  0.54569  0.32274  1.0000
  C   C242      1.0  0.13391  0.56824  0.29892  1.0000
  C   C243      1.0  0.10242  0.57385  0.30549  1.0000
  C   C244      1.0  0.08761  0.57986  0.32808  1.0000
  C   C245      1.0  0.12853  0.59167  0.35235  1.0000
  C   C246      1.0  0.13272  0.56081  0.26528  1.0000
  C   C247      1.0  0.10109  0.53917  0.34389  1.0000
  C   C248      1.0  0.10333  0.51970  0.35113  1.0000
  C   C249      1.0  0.07141  0.58584  0.31005  1.0000
  C   C250      1.0  0.12761  0.59935  0.38526  1.0000
  C   C251      1.0  0.14787  0.56694  0.24482  1.0000
  H   H409      1.0  0.13330  0.56445  0.36284  1.0000
  H   H410      1.0  0.11146  0.57125  0.36824  1.0000
  H   H411      1.0  0.11346  0.53987  0.29950  1.0000
  H   H412      1.0  0.12856  0.53949  0.33093  1.0000
  H   H413      1.0  0.14602  0.56279  0.30980  1.0000
  H   H414      1.0  0.13611  0.58244  0.29597  1.0000
  H   H415      1.0  0.10614  0.58577  0.29206  1.0000
  H   H416      1.0  0.09663  0.56501  0.28784  1.0000
  H   H417      1.0  0.09187  0.59110  0.34228  1.0000
  H   H418      1.0  0.08365  0.56937  0.34434  1.0000
  H   H419      1.0  0.14232  0.59248  0.34438  1.0000
  H   H420      1.0  0.12039  0.59994  0.33669  1.0000
  H   H421      1.0  0.12041  0.56509  0.25385  1.0000
  H   H422      1.0  0.13337  0.54633  0.26557  1.0000
  H   H423      1.0  0.10036  0.54592  0.36667  1.0000
  H   H424      1.0  0.08848  0.54102  0.33149  1.0000
  H   H425      1.0  0.11450  0.51744  0.36715  1.0000
  H   H426      1.0  0.09133  0.51468  0.36250  1.0000
  H   H427      1.0  0.10572  0.51218  0.32939  1.0000
  H   H428      1.0  0.06121  0.59047  0.32669  1.0000
  H   H429      1.0  0.07461  0.59679  0.29396  1.0000
  H   H430      1.0  0.06607  0.57487  0.29633  1.0000
  H   H431      1.0  0.13580  0.59151  0.40165  1.0000
  H   H432      1.0  0.13259  0.61290  0.38478  1.0000
  H   H433      1.0  0.11393  0.59977  0.39389  1.0000
  H   H434      1.0  0.14669  0.56122  0.22110  1.0000
  H   H435      1.0  0.14764  0.58137  0.24243  1.0000
  H   H436      1.0  0.16053  0.56262  0.25496  1.0000
  C   C252      1.0  0.15556  0.39774  0.32448  1.0000
  C   C253      1.0  0.01974  0.60462  0.09984  1.0000
  H   H437      1.0  0.24150  0.37175  0.07251  1.0000
  C   C254      1.0  0.20753  0.65312  0.28872  1.0000
  H   H438      1.0  0.11048  0.43405  0.12417  1.0000
  H   H439      1.0  0.13700  0.44123  0.19000  1.0000
  C   C255      1.0  0.14719  0.45739  0.22587  1.0000
  C   C256      1.0  0.15279  0.36930  0.26433  1.0000
  H   H440      1.0  0.08604  0.66952  0.14783  1.0000
  H   H441      1.0  0.16924  0.42189  0.31586  1.0000
  H   H442      1.0  0.24053  0.39513  0.06706  1.0000
  S   S62       1.0  0.13430  0.35485  0.13520  1.0000
  H   H443      1.0  0.14018  0.45098  0.24553  1.0000
  H   H444      1.0  0.02649  0.60867  0.12151  1.0000
  H   H445      1.0  0.09989  0.65634  0.12286  1.0000
  H   H446      1.0  0.14613  0.42459  0.32168  1.0000
  H   H447      1.0  0.12796  0.39448  0.33284  1.0000
  C   C257      1.0  0.13721  0.45529  0.19523  1.0000
  S   S63       1.0  0.22916  0.66900  0.42805  1.0000
  C   C258      1.0  0.09279  0.35801  0.28459  1.0000
  H   H448      1.0  0.16414  0.65410  0.16483  1.0000
  H   H449      1.0  0.15323  0.34559  0.23629  1.0000
  H   H450      1.0  0.02573  0.61152  0.07966  1.0000
  H   H451      1.0  0.14486  0.46198  0.17679  1.0000
  H   H452      1.0  0.02890  0.46134  0.29051  1.0000
  H   H453      1.0  0.16801  0.34598  0.39104  1.0000
  H   H454      1.0  0.14025  0.37370  0.25425  1.0000
  H   H455      1.0  0.16331  0.36411  0.21805  1.0000
  H   H456      1.0  0.14153  0.66214  0.27738  1.0000
  H   H457      1.0  0.24796  0.36692  0.16725  1.0000
  C   C259      1.0  0.16154  0.35709  0.24064  1.0000
  H   H458      1.0  0.17257  0.65835  0.10946  1.0000
  C   C260      1.0  0.23762  0.34114  0.10539  1.0000
  C   C261      1.0  0.24968  0.35729  0.14902  1.0000
  H   H459      1.0  0.12041  0.57366  0.99600  1.0000
  H   H460      1.0  0.13084  0.34068  0.36653  1.0000
  H   H461      1.0  0.13327  0.66358  0.12152  1.0000
  C   C262      1.0  0.14996  0.65701  0.16192  1.0000
  C   C263      1.0  0.15224  0.66710  0.26232  1.0000
  H   H462      1.0  0.16539  0.66092  0.21907  1.0000
  H   H463      1.0  0.15626  0.66520  0.08171  1.0000
  H   H464      1.0  0.14221  0.56451  0.99608  1.0000
  H   H465      1.0  0.25348  0.63564  0.33891  1.0000
  H   H466      1.0  0.14839  0.67094  0.16892  1.0000
  Fe  Fe33      1.0  0.07096  0.42284  0.79097  1.0000
  S   S64       1.0  0.07842  0.43718  0.83443  1.0000
  S   S65       1.0  0.04352  0.42079  0.77095  1.0000
  Fe  Fe34      1.0  0.10922  0.41623  0.77147  1.0000
  S   S66       1.0  0.11903  0.43004  0.81436  1.0000
  S   S67       1.0  0.13073  0.40914  0.73620  1.0000
  Fe  Fe35      1.0  0.09857  0.41547  0.84136  1.0000
  S   S68       1.0  0.10025  0.40198  0.88984  1.0000
  Fe  Fe36      1.0  0.09831  0.45042  0.80361  1.0000
  S   S69       1.0  0.10505  0.47946  0.80380  1.0000
  S   S70       1.0  0.08985  0.40029  0.79898  1.0000
  S   S71       1.0  0.08972  0.43734  0.75991  1.0000
  Fe  Fe37      1.0  0.09529  0.56510  0.69485  1.0000
  S   S72       1.0  0.08757  0.58279  0.73425  1.0000
  S   S73       1.0  0.09047  0.53565  0.69560  1.0000
  Fe  Fe38      1.0  0.10580  0.59645  0.65160  1.0000
  S   S74       1.0  0.09798  0.61615  0.68854  1.0000
  S   S75       1.0  0.11949  0.60024  0.60353  1.0000
  Fe  Fe39      1.0  0.11162  0.59814  0.72285  1.0000
  S   S76       1.0  0.13365  0.60441  0.75687  1.0000
  Fe  Fe40      1.0  0.07435  0.59915  0.69696  1.0000
  S   S77       1.0  0.04699  0.60881  0.71074  1.0000
  S   S78       1.0  0.12036  0.57907  0.68567  1.0000
  S   S79       1.0  0.08111  0.58079  0.65779  1.0000
  H   H467      1.0  0.03154  0.38670  0.75933  1.0000
  S   S80       1.0  0.17202  0.37043  0.56127  1.0000
  S   S81       1.0  0.13231  0.35800  0.61862  1.0000
  Fe  Fe41      1.0  0.19276  0.34923  0.56541  1.0000
  S   S82       1.0  0.22190  0.35453  0.57145  1.0000
  Fe  Fe42      1.0  0.16408  0.35813  0.51561  1.0000
  H   H468      1.0  0.09964  0.35007  0.96774  1.0000
  H   H469      1.0  0.13151  0.41643  0.58890  1.0000
  Fe  Fe43      1.0  0.16943  0.65530  0.96654  1.0000
  H   H470      1.0  0.17935  0.60535  0.71261  1.0000
  H   H471      1.0  0.04548  0.39148  0.80955  1.0000
  C   C264      1.0  0.12350  0.33997  0.88081  1.0000
  C   C265      1.0  0.05454  0.37149  0.74663  1.0000
  H   H472      1.0  0.11569  0.63317  0.96884  1.0000
  H   H473      1.0  0.21191  0.38954  0.66912  1.0000
  S   S83       1.0  0.17958  0.64656  0.91918  1.0000
  H   H474      1.0  0.10204  0.62068  0.92261  1.0000
  H   H475      1.0  0.13908  0.51942  0.66250  1.0000
  C   C266      1.0  0.24179  0.64862  0.86972  1.0000
  H   H476      1.0  0.23000  0.64122  0.87286  1.0000
  H   H477      1.0  0.00540  0.41703  0.86446  1.0000
  H   H478      1.0  0.00842  0.58811  0.62668  1.0000
  H   H479      1.0  0.13046  0.52638  0.69995  1.0000
  C   C267      1.0  0.13481  0.62065  0.78633  1.0000
  C   C268      1.0  0.15026  0.62201  0.80376  1.0000
  C   C269      1.0  0.15182  0.63464  0.82746  1.0000
  C   C270      1.0  0.13788  0.64602  0.83410  1.0000
  C   C271      1.0  0.12241  0.64465  0.81673  1.0000
  C   C272      1.0  0.12087  0.63204  0.79296  1.0000
  H   H480      1.0  0.16113  0.61327  0.79881  1.0000
  H   H481      1.0  0.16384  0.63567  0.84037  1.0000
  H   H482      1.0  0.11155  0.65340  0.82163  1.0000
  H   H483      1.0  0.10890  0.63114  0.77979  1.0000
  C   C273      1.0  0.12757  0.61643  0.57681  1.0000
  C   C274      1.0  0.12721  0.63433  0.58343  1.0000
  C   C275      1.0  0.13452  0.64644  0.56209  1.0000
  C   C276      1.0  0.14210  0.64098  0.53355  1.0000
  C   C277      1.0  0.14219  0.62312  0.52670  1.0000
  C   C278      1.0  0.13511  0.61099  0.54824  1.0000
  H   H484      1.0  0.12137  0.63884  0.60506  1.0000
  H   H485      1.0  0.13433  0.66015  0.56779  1.0000
  S   S84       1.0  0.18610  0.33841  0.51832  1.0000
  H   H486      1.0  0.13548  0.59722  0.54268  1.0000
  C   C279      1.0  0.11756  0.39459  0.91488  1.0000
  C   C280      1.0  0.13490  0.39310  0.90469  1.0000
  C   C281      1.0  0.14795  0.38642  0.92500  1.0000
  C   C282      1.0  0.14396  0.38115  0.95584  1.0000
  C   C283      1.0  0.12663  0.38281  0.96615  1.0000
  C   C284      1.0  0.11357  0.38936  0.94576  1.0000
  H   H487      1.0  0.13826  0.39699  0.88108  1.0000
  H   H488      1.0  0.16126  0.38530  0.91668  1.0000
  H   H489      1.0  0.08200  0.42106  0.51737  1.0000
  H   H490      1.0  0.10024  0.39046  0.95404  1.0000
  C   C285      1.0  0.13062  0.39523  0.70308  1.0000
  C   C286      1.0  0.14611  0.39306  0.68563  1.0000
  C   C287      1.0  0.14684  0.38191  0.65947  1.0000
  C   C288      1.0  0.13205  0.37273  0.65059  1.0000
  C   C289      1.0  0.11646  0.37516  0.66770  1.0000
  C   C290      1.0  0.11572  0.38636  0.69380  1.0000
  H   H491      1.0  0.15771  0.39981  0.69274  1.0000
  H   H492      1.0  0.15890  0.38017  0.64655  1.0000
  H   H493      1.0  0.10494  0.36814  0.66094  1.0000
  H   H494      1.0  0.10371  0.38795  0.70693  1.0000
  C   C291      1.0  0.09972  0.49528  0.77458  1.0000
  C   C292      1.0  0.10659  0.51217  0.77687  1.0000
  C   C293      1.0  0.10346  0.52486  0.75343  1.0000
  C   C294      1.0  0.09360  0.52072  0.72712  1.0000
  C   C295      1.0  0.08653  0.50391  0.72499  1.0000
  C   C296      1.0  0.08933  0.49135  0.74879  1.0000
  H   H495      1.0  0.11454  0.51540  0.79681  1.0000
  H   H496      1.0  0.10900  0.53772  0.75539  1.0000
  H   H497      1.0  0.07880  0.50058  0.70484  1.0000
  H   H498      1.0  0.08364  0.47856  0.74695  1.0000
  C   C297      1.0  0.02232  0.41983  0.82420  1.0000
  C   C298      1.0  0.02329  0.42075  0.79150  1.0000
  C   C299      1.0  0.03727  0.34751  0.79837  1.0000
  H   H499      1.0  0.03416  0.42011  0.83784  1.0000
  H   H500      1.0  0.05673  0.38231  0.89472  1.0000
  H   H501      1.0  0.18176  0.60548  0.91560  1.0000
  C   C300      1.0  0.02668  0.60329  0.69366  1.0000
  C   C301      1.0  0.02555  0.59661  0.66336  1.0000
  H   H502      1.0  0.09531  0.65239  0.93870  1.0000
  H   H503      1.0  0.03732  0.59450  0.64975  1.0000
  S   S85       1.0  0.15168  0.65701  0.50818  1.0000
  H   H504      1.0  0.04527  0.37440  0.69860  1.0000
  H   H505      1.0  0.06133  0.39698  0.86278  1.0000
  H   H506      1.0  0.21524  0.37600  0.63520  1.0000
  C   C302      1.0  0.18464  0.63119  0.56762  1.0000
  H   H507      1.0  0.08588  0.35658  0.54573  1.0000
  C   C303      1.0  0.04378  0.37580  0.85125  1.0000
  H   H508      1.0  0.11426  0.42759  0.50434  1.0000
  H   H509      1.0  0.23804  0.39555  0.70384  1.0000
  N   N15       1.0  0.03108  0.54667  0.73118  1.0000
  C   C304      1.0  0.04255  0.56075  0.74402  1.0000
  C   C305      1.0  0.03871  0.54052  0.70046  1.0000
  H   H510      1.0  0.10347  0.34548  0.56583  1.0000
  C   C306      1.0  0.03024  0.53122  0.75320  1.0000
  C   C307      1.0  0.04806  0.52386  0.76475  1.0000
  C   C308      1.0  0.03748  0.56768  0.77696  1.0000
  H   H511      1.0  0.09674  0.41138  0.62371  1.0000
  C   C309      1.0  0.03847  0.55402  0.67331  1.0000
  C   C310      1.0  0.04653  0.54628  0.64360  1.0000
  C   C311      1.0  0.04573  0.50771  0.78540  1.0000
  C   C312      1.0  0.05120  0.58013  0.78929  1.0000
  H   H512      1.0  0.04231  0.57237  0.72837  1.0000
  H   H513      1.0  0.05647  0.55635  0.74420  1.0000
  H   H514      1.0  0.05260  0.53654  0.70350  1.0000
  H   H515      1.0  0.03210  0.52854  0.69231  1.0000
  H   H516      1.0  0.01188  0.61140  0.73421  1.0000
  H   H517      1.0  0.20413  0.61598  0.74304  1.0000
  H   H518      1.0  0.13355  0.57293  0.94258  1.0000
  H   H519      1.0  0.12288  0.37007  0.55666  1.0000
  H   H520      1.0  0.05517  0.53363  0.77868  1.0000
  H   H521      1.0  0.05638  0.51996  0.74472  1.0000
  H   H522      1.0  0.05816  0.35758  0.74296  1.0000
  H   H523      1.0  0.03619  0.55698  0.79430  1.0000
  C   C313      1.0  0.23860  0.37981  0.66260  1.0000
  H   H524      1.0  0.15146  0.34494  0.93490  1.0000
  H   H525      1.0  0.02498  0.55828  0.66759  1.0000
  H   H526      1.0  0.04614  0.56565  0.67939  1.0000
  H   H527      1.0  0.03904  0.53481  0.63577  1.0000
  H   H528      1.0  0.04631  0.55628  0.62468  1.0000
  H   H529      1.0  0.06032  0.54227  0.64774  1.0000
  H   H530      1.0  0.03770  0.51092  0.80635  1.0000
  H   H531      1.0  0.03943  0.49711  0.77210  1.0000
  H   H532      1.0  0.05871  0.50283  0.79337  1.0000
  H   H533      1.0  0.11469  0.34979  0.83570  1.0000
  H   H534      1.0  0.06397  0.57326  0.79188  1.0000
  H   H535      1.0  0.05271  0.59143  0.77316  1.0000
  C   C314      1.0  0.14429  0.41711  0.52574  1.0000
  H   H536      1.0  0.11766  0.41571  0.64058  1.0000
  H   H537      1.0  0.18380  0.59300  0.88012  1.0000
  H   H538      1.0  0.06041  0.37401  0.81035  1.0000
  H   H539      1.0  0.15297  0.53005  0.69024  1.0000
  H   H540      1.0  0.17540  0.62356  0.55343  1.0000
  C   C315      1.0  0.17790  0.63326  0.60114  1.0000
  H   H541      1.0  0.18801  0.64015  0.61450  1.0000
  Fe  Fe44      1.0  0.19865  0.66882  0.92133  1.0000
  H   H542      1.0  0.18547  0.58157  0.66532  1.0000
  C   C316      1.0  0.10783  0.41337  0.56054  1.0000
  H   H543      1.0  0.21249  0.62744  0.70939  1.0000
  H   H544      1.0  0.12102  0.39615  0.59567  1.0000
  C   C317      1.0  0.00912  0.59306  0.65028  1.0000
  H   H545      1.0  0.11198  0.66430  0.95864  1.0000
  N   N16       1.0  0.12750  0.60799  0.92025  1.0000
  C   C318      1.0  0.11945  0.59513  0.89808  1.0000
  C   C319      1.0  0.01591  0.37144  0.80569  1.0000
  C   C320      1.0  0.11602  0.62424  0.91997  1.0000
  C   C321      1.0  0.14589  0.61289  0.91096  1.0000
  C   C322      1.0  0.15707  0.59863  0.89403  1.0000
  C   C323      1.0  0.11592  0.60227  0.86455  1.0000
  C   C324      1.0  0.11980  0.63800  0.94543  1.0000
  H   H546      1.0  0.16608  0.64179  0.60028  1.0000
  H   H547      1.0  0.13660  0.39144  0.51112  1.0000
  H   H548      1.0  0.02758  0.36520  0.74623  1.0000
  C   C325      1.0  0.11320  0.58757  0.84112  1.0000
  H   H549      1.0  0.04709  0.58517  0.81253  1.0000
  H   H550      1.0  0.05187  0.39456  0.71680  1.0000
  H   H551      1.0  0.12750  0.58306  0.89602  1.0000
  H   H552      1.0  0.13282  0.60993  0.96994  1.0000
  H   H553      1.0  0.07137  0.37547  0.86390  1.0000
  H   H554      1.0  0.24692  0.40644  0.67101  1.0000
  H   H555      1.0  0.11709  0.63111  0.89699  1.0000
  H   H556      1.0  0.14581  0.62444  0.89498  1.0000
  H   H557      1.0  0.16476  0.41032  0.55908  1.0000
  H   H558      1.0  0.15239  0.59682  0.86975  1.0000
  C   C326      1.0  0.11913  0.34187  0.91613  1.0000
  H   H559      1.0  0.10394  0.61063  0.86457  1.0000
  H   H560      1.0  0.12682  0.61038  0.85605  1.0000
  H   H561      1.0  0.13392  0.64087  0.94612  1.0000
  C   C327      1.0  0.00774  0.42038  0.77421  1.0000
  C   C328      1.0  0.12713  0.60057  0.95308  1.0000
  C   C329      1.0  0.24367  0.66445  0.88550  1.0000
  C   C330      1.0  0.10888  0.41420  0.50282  1.0000
  H   H562      1.0  0.14445  0.65547  0.69960  1.0000
  C   C331      1.0  0.10028  0.35509  0.54707  1.0000
  C   C332      1.0  0.23800  0.34750  0.59871  1.0000
  H   H563      1.0  0.12529  0.57951  0.83864  1.0000
  H   H564      1.0  0.10227  0.57915  0.84864  1.0000
  H   H565      1.0  0.17097  0.42589  0.52944  1.0000
  H   H566      1.0  0.15164  0.58572  0.95651  1.0000
  H   H567      1.0  0.10672  0.59060  0.90757  1.0000
  H   H568      1.0  0.16904  0.40323  0.51930  1.0000
  N   N17       1.0  0.16976  0.61511  0.65077  1.0000
  C   C333      1.0  0.16174  0.59773  0.65868  1.0000
  C   C334      1.0  0.15696  0.62981  0.65778  1.0000
  C   C335      1.0  0.17348  0.61525  0.61594  1.0000
  C   C336      1.0  0.18684  0.61767  0.66746  1.0000
  C   C337      1.0  0.18640  0.61688  0.70365  1.0000
  C   C338      1.0  0.17317  0.58131  0.65178  1.0000
  H   H569      1.0  0.13926  0.42808  0.54020  1.0000
  C   C339      1.0  0.14520  0.62787  0.68722  1.0000
  C   C340      1.0  0.13525  0.64481  0.69442  1.0000
  H   H570      1.0  0.14927  0.59637  0.64565  1.0000
  H   H571      1.0  0.15797  0.59690  0.68373  1.0000
  H   H572      1.0  0.16389  0.64245  0.65928  1.0000
  H   H573      1.0  0.14751  0.63131  0.63820  1.0000
  H   H574      1.0  0.16205  0.61023  0.60282  1.0000
  H   H575      1.0  0.03202  0.38352  0.85835  1.0000
  H   H576      1.0  0.19681  0.60808  0.65898  1.0000
  H   H577      1.0  0.19233  0.63061  0.66152  1.0000
  C   C341      1.0  0.10941  0.41789  0.61957  1.0000
  H   H578      1.0  0.18017  0.62897  0.71294  1.0000
  C   C342      1.0  0.11859  0.41016  0.59090  1.0000
  H   H579      1.0  0.01327  0.56673  0.71388  1.0000
  H   H580      1.0  0.15321  0.61730  0.93190  1.0000
  H   H581      1.0  0.13545  0.61759  0.68310  1.0000
  H   H582      1.0  0.15259  0.62409  0.70830  1.0000
  H   H583      1.0  0.15647  0.58581  0.90591  1.0000
  H   H584      1.0  0.02205  0.53433  0.77407  1.0000
  H   H585      1.0  0.14794  0.61860  0.50498  1.0000
  N   N18       1.0  0.13645  0.47125  0.70867  1.0000
  C   C343      1.0  0.11959  0.46132  0.70949  1.0000
  C   C344      1.0  0.14415  0.47138  0.74114  1.0000
  C   C345      1.0  0.13208  0.49001  0.70017  1.0000
  C   C346      1.0  0.14938  0.46403  0.68499  1.0000
  C   C347      1.0  0.14894  0.44407  0.67845  1.0000
  C   C348      1.0  0.10811  0.46319  0.67977  1.0000
  C   C349      1.0  0.14725  0.50314  0.70212  1.0000
  C   C350      1.0  0.14845  0.45348  0.75628  1.0000
  C   C351      1.0  0.15463  0.45573  0.78996  1.0000
  C   C352      1.0  0.16406  0.43836  0.65723  1.0000
  C   C353      1.0  0.09369  0.44964  0.67909  1.0000
  C   C354      1.0  0.14208  0.52079  0.68775  1.0000
  H   H586      1.0  0.11150  0.46562  0.72975  1.0000
  H   H587      1.0  0.12195  0.44720  0.71396  1.0000
  H   H588      1.0  0.15664  0.47854  0.74128  1.0000
  H   H589      1.0  0.13515  0.47855  0.75740  1.0000
  H   H590      1.0  0.12147  0.49510  0.71558  1.0000
  H   H591      1.0  0.12699  0.49092  0.67588  1.0000
  H   H592      1.0  0.14749  0.47046  0.66179  1.0000
  H   H593      1.0  0.16292  0.46731  0.69195  1.0000
  H   H594      1.0  0.13671  0.44055  0.66643  1.0000
  H   H595      1.0  0.14967  0.43620  0.70012  1.0000
  H   H596      1.0  0.10163  0.47626  0.67927  1.0000
  H   H597      1.0  0.11607  0.46183  0.65817  1.0000
  H   H598      1.0  0.15902  0.49814  0.68969  1.0000
  H   H599      1.0  0.15062  0.50563  0.72694  1.0000
  H   H600      1.0  0.13688  0.44503  0.75707  1.0000
  H   H601      1.0  0.15919  0.44685  0.74339  1.0000
  H   H602      1.0  0.16654  0.46379  0.79070  1.0000
  H   H603      1.0  0.14423  0.46204  0.80440  1.0000
  H   H604      1.0  0.15773  0.44273  0.80031  1.0000
  H   H605      1.0  0.16302  0.42422  0.65206  1.0000
  H   H606      1.0  0.16369  0.44568  0.63473  1.0000
  H   H607      1.0  0.17674  0.44054  0.66895  1.0000
  H   H608      1.0  0.09918  0.43620  0.68166  1.0000
  H   H609      1.0  0.08413  0.45220  0.69817  1.0000
  H   H610      1.0  0.08664  0.45055  0.65651  1.0000
  H   H611      1.0  0.02492  0.57505  0.77590  1.0000
  C   C355      1.0  0.10457  0.38632  0.52914  1.0000
  H   H612      1.0  0.23608  0.36772  0.67617  1.0000
  Fe  Fe45      1.0  0.16065  0.66648  0.89963  1.0000
  C   C356      1.0  0.24740  0.62741  0.95787  1.0000
  C   C357      1.0  0.05926  0.38306  0.86915  1.0000
  H   H613      1.0  0.18455  0.60624  0.61024  1.0000
  H   H614      1.0  0.16032  0.56469  0.68624  1.0000
  C   C358      1.0  0.16342  0.41387  0.53397  1.0000
  H   H615      1.0  0.15148  0.56342  0.64708  1.0000
  H   H616      1.0  0.13796  0.39358  0.55171  1.0000
  H   H617      1.0  0.01392  0.38584  0.80652  1.0000
  H   H618      1.0  0.10329  0.37682  0.57750  1.0000
  C   C359      1.0  0.16365  0.56464  0.66090  1.0000
  H   H619      1.0  0.24700  0.37644  0.64231  1.0000
  H   H620      1.0  0.10717  0.43215  0.61648  1.0000
  C   C360      1.0  0.11101  0.35099  0.86077  1.0000
  Fe  Fe46      1.0  0.15430  0.35099  0.58427  1.0000
  C   C361      1.0  0.01118  0.60615  0.71081  1.0000
  C   C362      1.0  0.05488  0.38038  0.71452  1.0000
  H   H621      1.0  0.17775  0.61572  0.87788  1.0000
  N   N19       1.0  0.11371  0.40359  0.53156  1.0000
  H   H622      1.0  0.23936  0.61604  0.96463  1.0000
  H   H623      1.0  0.10803  0.42774  0.55641  1.0000
  H   H624      1.0  0.24883  0.41271  0.74006  1.0000
  H   H625      1.0  0.19756  0.62444  0.56743  1.0000
  H   H626      1.0  0.17214  0.55309  0.65604  1.0000
  H   H627      1.0  0.09392  0.41048  0.56587  1.0000
  C   C363      1.0  0.13745  0.58337  0.95885  1.0000
  C   C364      1.0  0.13320  0.40049  0.53050  1.0000
  H   H628      1.0  0.17634  0.58033  0.62650  1.0000
  S   S86       1.0  0.16104  0.37218  0.97983  1.0000
  H   H629      1.0  0.01352  0.36667  0.82994  1.0000
  C   C365      1.0  0.20483  0.61597  0.71707  1.0000
  C   C366      1.0  0.08911  0.41651  0.49618  1.0000
  H   H630      1.0  0.11004  0.59324  0.81780  1.0000
  C   C367      1.0  0.10869  0.37253  0.55463  1.0000
  C   C368      1.0  0.04660  0.37738  0.81540  1.0000
  H   H631      1.0  0.06578  0.34694  0.78833  1.0000
  H   H632      1.0  0.06460  0.37786  0.76092  1.0000
  C   C369      1.0  0.03615  0.37290  0.76169  1.0000
  H   H633      1.0  0.11364  0.66099  0.91699  1.0000
  H   H634      1.0  0.24085  0.63432  0.93812  1.0000
  H   H635      1.0  0.12204  0.35557  0.92259  1.0000
  H   H636      1.0  0.11336  0.59860  0.96072  1.0000
  H   H637      1.0  0.24803  0.63639  0.97814  1.0000
  H   H638      1.0  0.02356  0.52016  0.74174  1.0000
  N   N20       1.0  0.03435  0.36702  0.79535  1.0000
  H   H639      1.0  0.21167  0.60379  0.70954  1.0000
  H   H640      1.0  0.18604  0.64425  0.55652  1.0000
  H   H641      1.0  0.04187  0.36203  0.85849  1.0000
  H   H642      1.0  0.10538  0.34988  0.52455  1.0000
  H   H643      1.0  0.12329  0.37903  0.98982  1.0000
  H   H644      1.0  0.12684  0.64868  0.67438  1.0000
  H   H645      1.0  0.06809  0.37890  0.70397  1.0000
  C   C370      1.0  0.10953  0.65494  0.93945  1.0000
  C   C371      1.0  0.17625  0.60359  0.89188  1.0000
  S   S87       1.0  0.14532  0.33958  0.53831  1.0000
  C   C372      1.0  0.22111  0.38634  0.64975  1.0000
  H   H646      1.0  0.22294  0.39806  0.63475  1.0000
  H   H647      1.0  0.10747  0.38029  0.50601  1.0000
  H   H648      1.0  0.13069  0.34744  0.97644  1.0000
  H   H649      1.0  0.06025  0.34432  0.82866  1.0000
  H   H650      1.0  0.00709  0.55750  0.75010  1.0000
  H   H651      1.0  0.09018  0.38822  0.53022  1.0000
  S   S88       1.0  0.13905  0.66210  0.86384  1.0000
  H   H652      1.0  0.11172  0.36500  0.86731  1.0000
  C   C373      1.0  0.01291  0.55413  0.72699  1.0000
  H   H653      1.0  0.12680  0.64283  0.71531  1.0000
  H   H654      1.0  0.14384  0.42123  0.50076  1.0000
  C   C374      1.0  0.24710  0.39371  0.68370  1.0000
  H   H655      1.0  0.09737  0.34657  0.86375  1.0000
  H   H656      1.0  0.10474  0.34062  0.91828  1.0000
  H   H657      1.0  0.00832  0.42105  0.74894  1.0000
  H   H658      1.0  0.02933  0.34212  0.81797  1.0000
  C   C375      1.0  0.23379  0.33921  0.62696  1.0000
  H   H659      1.0  0.13685  0.34474  0.87588  1.0000
  H   H660      1.0  0.03245  0.34082  0.77708  1.0000
  C   C376      1.0  0.05626  0.34100  0.80451  1.0000
  C   C377      1.0  0.00599  0.41807  0.83924  1.0000
  H   H661      1.0  0.18137  0.33824  0.95309  1.0000
  H   H662      1.0  0.00402  0.53863  0.68671  1.0000
  C   C378      1.0  0.13440  0.57665  0.99216  1.0000
  C   C379      1.0  0.10442  0.33768  0.97858  1.0000
  H   H663      1.0  0.21907  0.90293  0.32936  1.0000
  Fe  Fe47      1.0  0.16769  0.68801  0.41036  1.0000
  S   S89       1.0  0.15826  0.71543  0.39695  1.0000
  H   H664      1.0  0.19156  0.73388  0.26833  1.0000
  Fe  Fe48      1.0  0.17874  0.81535  0.43615  1.0000
  S   S90       1.0  0.19358  0.83566  0.46242  1.0000
  S   S91       1.0  0.18630  0.78740  0.45028  1.0000
  Fe  Fe49      1.0  0.16075  0.84359  0.39687  1.0000
  S   S92       1.0  0.17457  0.86563  0.42014  1.0000
  S   S93       1.0  0.14065  0.84677  0.35832  1.0000
  Fe  Fe50      1.0  0.19844  0.84812  0.41568  1.0000
  S   S94       1.0  0.22538  0.85898  0.40469  1.0000
  Fe  Fe51      1.0  0.16853  0.85144  0.46521  1.0000
  S   S95       1.0  0.16228  0.85522  0.02146  1.0000
  S   S96       1.0  0.18498  0.82712  0.38916  1.0000
  S   S97       1.0  0.15328  0.83010  0.44218  1.0000
  Fe  Fe52      1.0  0.07629  0.91493  0.20340  1.0000
  S   S98       1.0  0.08223  0.93077  0.16060  1.0000
  S   S99       1.0  0.04930  0.90658  0.22029  1.0000
  Fe  Fe53      1.0  0.11433  0.91493  0.22454  1.0000
  S   S100      1.0  0.12279  0.93101  0.18283  1.0000
  S   S101      1.0  0.13470  0.91061  0.26270  1.0000
  Fe  Fe54      1.0  0.09863  0.94722  0.19219  1.0000
  S   S102      1.0  0.09594  0.97686  0.18637  1.0000
  Fe  Fe55      1.0  0.10604  0.91322  0.15418  1.0000
  S   S103      1.0  0.11211  0.90634  0.10254  1.0000
  S   S104      1.0  0.09128  0.93242  0.23539  1.0000
  S   S105      1.0  0.09894  0.89605  0.19551  1.0000
  C   C380      1.0  0.09999  0.99281  0.21545  1.0000
  H   H665      1.0  0.06299  0.97754  0.15024  1.0000
  C   C381      1.0  0.10612  0.98825  0.24517  1.0000
  C   C382      1.0  0.20202  0.90100  0.38291  1.0000
  H   H666      1.0  0.10899  0.97471  0.25067  1.0000
  C   C383      1.0  0.13930  0.86457  0.33181  1.0000
  C   C384      1.0  0.14964  0.87931  0.33510  1.0000
  C   C385      1.0  0.14801  0.89331  0.31377  1.0000
  C   C386      1.0  0.13594  0.89277  0.28913  1.0000
  C   C387      1.0  0.12546  0.87811  0.28607  1.0000
  C   C388      1.0  0.12716  0.86407  0.30731  1.0000
  H   H667      1.0  0.15878  0.87995  0.35420  1.0000
  H   H668      1.0  0.15603  0.90470  0.31645  1.0000
  H   H669      1.0  0.11613  0.87754  0.26719  1.0000
  H   H670      1.0  0.11904  0.85274  0.30468  1.0000
  C   C389      1.0  0.14803  0.86947  0.04342  1.0000
  C   C390      1.0  0.14865  0.86903  0.07642  1.0000
  C   C391      1.0  0.13773  0.87999  0.09489  1.0000
  C   C392      1.0  0.12594  0.89165  0.08066  1.0000
  C   C393      1.0  0.12531  0.89211  0.04768  1.0000
  C   C394      1.0  0.13624  0.88116  0.02921  1.0000
  H   H671      1.0  0.15766  0.86009  0.08781  1.0000
  H   H672      1.0  0.13847  0.87940  0.12013  1.0000
  H   H673      1.0  0.11630  0.90102  0.03624  1.0000
  H   H674      1.0  0.21431  0.73948  0.26695  1.0000
  H   H675      1.0  0.02876  0.95662  0.24112  1.0000
  H   H676      1.0  0.09739  0.97314  0.11584  1.0000
  C   C395      1.0  0.23893  0.83754  0.35774  1.0000
  H   H677      1.0  0.03812  0.99289  0.19890  1.0000
  H   H678      1.0  0.22617  0.83176  0.35650  1.0000
  C   C396      1.0  0.16668  0.73532  0.41119  1.0000
  C   C397      1.0  0.17948  0.73563  0.43435  1.0000
  C   C398      1.0  0.18544  0.75169  0.44577  1.0000
  C   C399      1.0  0.17874  0.76762  0.43413  1.0000
  C   C400      1.0  0.16623  0.76734  0.41046  1.0000
  C   C401      1.0  0.16017  0.75125  0.39922  1.0000
  H   H679      1.0  0.18472  0.72348  0.44350  1.0000
  H   H680      1.0  0.17273  0.83374  0.31082  1.0000
  H   H681      1.0  0.16098  0.77949  0.40123  1.0000
  H   H682      1.0  0.15028  0.75116  0.38125  1.0000
  H   H683      1.0  0.15743  0.97997  0.19405  1.0000
  C   C402      1.0  0.01351  0.90979  0.22295  1.0000
  C   C403      1.0  0.02880  0.91464  0.20696  1.0000
  C   C404      1.0  0.02736  0.92552  0.18074  1.0000
  C   C405      1.0  0.11460  0.68675  0.45237  1.0000
  H   H684      1.0  0.03898  0.92911  0.16794  1.0000
  C   C406      1.0  0.15584  0.98100  0.07494  1.0000
  C   C407      1.0  0.14445  0.94523  0.09897  1.0000
  C   C408      1.0  0.20757  0.86238  0.30161  1.0000
  H   H685      1.0  0.00988  0.94000  0.15046  1.0000
  H   H686      1.0  0.16138  0.67923  0.11407  1.0000
  H   H687      1.0  0.24265  0.86206  0.30385  1.0000
  C   C409      1.0  0.14695  0.93534  0.06761  1.0000
  H   H688      1.0  0.18644  0.89535  0.34323  1.0000
  N   N21       1.0  0.13211  0.96080  0.09840  1.0000
  C   C410      1.0  0.11419  0.95409  0.09062  1.0000
  H   H689      1.0  0.25200  0.83307  0.44228  1.0000
  C   C411      1.0  0.16096  0.92101  0.07062  1.0000
  H   H690      1.0  0.23164  0.82918  0.46239  1.0000
  H   H691      1.0  0.13992  0.93555  0.11673  1.0000
  H   H692      1.0  0.15766  0.94894  0.10665  1.0000
  H   H693      1.0  0.22731  0.87807  0.25791  1.0000
  H   H694      1.0  0.18021  0.86180  0.28488  1.0000
  H   H695      1.0  0.16212  0.71336  0.48160  1.0000
  H   H696      1.0  0.20581  0.67988  0.27404  1.0000
  H   H697      1.0  0.05026  0.95896  0.13950  1.0000
  H   H698      1.0  0.08742  0.83237  0.40616  1.0000
  H   H699      1.0  0.16574  0.97035  0.07628  1.0000
  H   H700      1.0  0.20411  0.91479  0.37589  1.0000
  H   H701      1.0  0.13473  0.92894  0.06055  1.0000
  H   H702      1.0  0.15109  0.94424  0.04854  1.0000
  H   H703      1.0  0.07513  0.95558  0.32915  1.0000
  C   C412      1.0  0.25238  0.83199  0.33729  1.0000
  C   C413      1.0  0.07068  0.88529  0.48137  1.0000
  C   C414      1.0  0.09894  0.96767  0.09198  1.0000
  C   C415      1.0  0.24532  0.76165  0.44967  1.0000
  H   H704      1.0  0.13473  0.96865  0.04994  1.0000
  C   C416      1.0  0.19527  0.88784  0.24767  1.0000
  H   H705      1.0  0.07061  0.00170  0.26878  1.0000
  H   H706      1.0  0.10654  0.82235  0.42345  1.0000
  H   H707      1.0  0.18737  0.78987  0.99614  1.0000
  H   H708      1.0  0.17336  0.99709  0.04754  1.0000
  H   H709      1.0  0.15779  0.91198  0.09018  1.0000
  H   H710      1.0  0.20051  0.78053  0.02689  1.0000
  H   H711      1.0  0.11073  0.94325  0.10690  1.0000
  H   H712      1.0  0.07267  0.94232  0.29486  1.0000
  H   H713      1.0  0.11482  0.68514  0.42656  1.0000
  H   H714      1.0  0.08734  0.86462  0.39459  1.0000
  H   H715      1.0  0.19645  0.87361  0.24324  1.0000
  H   H716      1.0  0.08716  0.96083  0.29411  1.0000
  C   C417      1.0  0.14515  0.97989  0.18038  1.0000
  N   N22       1.0  0.23186  0.69465  0.31765  1.0000
  H   H717      1.0  0.04722  0.96197  0.30186  1.0000
  H   H718      1.0  0.23957  0.81297  0.40406  1.0000
  H   H719      1.0  0.06122  0.98057  0.30380  1.0000
  C   C418      1.0  0.10182  0.83316  0.40810  1.0000
  H   H720      1.0  0.23625  0.67462  0.28258  1.0000
  H   H721      1.0  0.14142  0.99360  0.17460  1.0000
  C   C419      1.0  0.12687  0.70139  0.46160  1.0000
  C   C420      1.0  0.17759  0.89419  0.23536  1.0000
  C   C421      1.0  0.22832  0.88396  0.28157  1.0000
  H   H722      1.0  0.11879  0.67420  0.46339  1.0000
  C   C422      1.0  0.10702  0.85066  0.42203  1.0000
  H   H723      1.0  0.20556  0.89448  0.23384  1.0000
  H   H724      1.0  0.23088  0.89810  0.27759  1.0000
  C   C423      1.0  0.22739  0.70883  0.29414  1.0000
  H   H725      1.0  0.22535  0.75731  0.48522  1.0000
  C   C424      1.0  0.03033  0.88489  0.12895  1.0000
  H   H726      1.0  0.16163  0.91328  0.04869  1.0000
  S   S106      1.0  0.18590  0.67272  0.37927  1.0000
  H   H727      1.0  0.12138  0.85039  0.42480  1.0000
  C   C425      1.0  0.22658  0.71256  0.36820  1.0000
  C   C426      1.0  0.01084  0.93160  0.17083  1.0000
  C   C427      1.0  0.20506  0.72844  0.26688  1.0000
  H   H728      1.0  0.19496  0.83137  0.32396  1.0000
  H   H729      1.0  0.14901  0.68068  0.25490  1.0000
  H   H730      1.0  0.15064  0.00301  0.04348  1.0000
  C   C428      1.0  0.19742  0.89205  0.28293  1.0000
  H   H731      1.0  0.01114  0.90510  0.12301  1.0000
  H   H732      1.0  0.07092  0.96913  0.08503  1.0000
  H   H733      1.0  0.03829  0.99628  0.28368  1.0000
  H   H734      1.0  0.23905  0.70995  0.38068  1.0000
  C   C429      1.0  0.01082  0.97836  0.23255  1.0000
  C   C430      1.0  0.24546  0.82486  0.46023  1.0000
  H   H735      1.0  0.16686  0.88690  0.24681  1.0000
  C   C431      1.0  0.14780  0.96913  0.15065  1.0000
  H   H736      1.0  0.25183  0.77156  0.46402  1.0000
  H   H737      1.0  0.15427  0.91914  0.43161  1.0000
  H   H738      1.0  0.15914  0.97438  0.13787  1.0000
  H   H739      1.0  0.02429  0.96982  0.27398  1.0000
  C   C432      1.0  0.22858  0.67676  0.30439  1.0000
  H   H740      1.0  0.03176  0.87154  0.13899  1.0000
  H   H741      1.0  0.03444  0.88476  0.10400  1.0000
  H   H742      1.0  0.03916  0.89364  0.14195  1.0000
  H   H743      1.0  0.25195  0.82693  0.48304  1.0000
  C   C433      1.0  0.04264  0.99777  0.25894  1.0000
  C   C434      1.0  0.25107  0.69555  0.32518  1.0000
  N   N23       1.0  0.10482  0.88410  0.41279  1.0000
  C   C435      1.0  0.10137  0.86607  0.40047  1.0000
  C   C436      1.0  0.09691  0.89734  0.39051  1.0000
  C   C437      1.0  0.12428  0.88632  0.41556  1.0000
  C   C438      1.0  0.09673  0.88671  0.44473  1.0000
  H   H744      1.0  0.24065  0.79800  0.47067  1.0000
  C   C439      1.0  0.13039  0.90499  0.42369  1.0000
  C   C440      1.0  0.10515  0.89801  0.35726  1.0000
  C   C441      1.0  0.09680  0.91249  0.33739  1.0000
  S   S107      1.0  0.18243  0.68149  0.45381  1.0000
  H   H745      1.0  0.01236  0.97884  0.20676  1.0000
  H   H746      1.0  0.10840  0.86399  0.37795  1.0000
  H   H747      1.0  0.08284  0.89467  0.38702  1.0000
  H   H748      1.0  0.09726  0.91068  0.40066  1.0000
  H   H749      1.0  0.13105  0.88206  0.39375  1.0000
  H   H750      1.0  0.12965  0.87751  0.43405  1.0000
  H   H751      1.0  0.00836  0.89174  0.15755  1.0000
  H   H752      1.0  0.09795  0.90052  0.45218  1.0000
  H   H753      1.0  0.11400  0.94842  0.06673  1.0000
  H   H754      1.0  0.06909  0.89077  0.43222  1.0000
  H   H755      1.0  0.12484  0.90936  0.44638  1.0000
  H   H756      1.0  0.12650  0.91455  0.40535  1.0000
  H   H757      1.0  0.11932  0.90054  0.35815  1.0000
  H   H758      1.0  0.10319  0.88553  0.34482  1.0000
  H   H759      1.0  0.10286  0.91252  0.31371  1.0000
  H   H760      1.0  0.08259  0.91032  0.33470  1.0000
  H   H761      1.0  0.09889  0.92546  0.34812  1.0000
  H   H762      1.0  0.19020  0.83156  0.28261  1.0000
  H   H763      1.0  0.10779  0.83138  0.38457  1.0000
  C   C442      1.0  0.01151  0.89154  0.13221  1.0000
  H   H764      1.0  0.13551  0.88173  0.00396  1.0000
  H   H765      1.0  0.23021  0.70414  0.26997  1.0000
  H   H766      1.0  0.18456  0.89040  0.29437  1.0000
  N   N24       1.0  0.24022  0.78471  0.40497  1.0000
  H   H767      1.0  0.22404  0.68474  0.36302  1.0000
  C   C443      1.0  0.23311  0.76990  0.42462  1.0000
  C   C444      1.0  0.23071  0.78491  0.37401  1.0000
  C   C445      1.0  0.23682  0.80210  0.42055  1.0000
  C   C446      1.0  0.24197  0.85079  0.37938  1.0000
  H   H768      1.0  0.22813  0.72444  0.35357  1.0000
  C   C447      1.0  0.21047  0.78428  0.37585  1.0000
  H   H769      1.0  0.21265  0.85546  0.28050  1.0000
  C   C448      1.0  0.24492  0.87574  0.29672  1.0000
  H   H770      1.0  0.15719  0.98977  0.09532  1.0000
  H   H771      1.0  0.10393  0.87897  0.46271  1.0000
  C   C449      1.0  0.20230  0.78637  0.34349  1.0000
  H   H772      1.0  0.15654  0.90142  0.40428  1.0000
  H   H773      1.0  0.19987  0.71938  0.38168  1.0000
  H   H774      1.0  0.22077  0.77412  0.43641  1.0000
  H   H775      1.0  0.22950  0.75873  0.40944  1.0000
  H   H776      1.0  0.23505  0.77363  0.35936  1.0000
  H   H777      1.0  0.23394  0.79685  0.36035  1.0000
  H   H778      1.0  0.22442  0.88188  0.34469  1.0000
  H   H779      1.0  0.22275  0.80378  0.42645  1.0000
  H   H780      1.0  0.18223  0.86225  0.32653  1.0000
  H   H781      1.0  0.00798  0.99177  0.24101  1.0000
  C   C450      1.0  0.13102  0.96918  0.13041  1.0000
  C   C451      1.0  0.02733  0.97051  0.24855  1.0000
  H   H782      1.0  0.20513  0.79484  0.39073  1.0000
  H   H783      1.0  0.20604  0.77164  0.38562  1.0000
  C   C452      1.0  0.22190  0.69652  0.34804  1.0000
  H   H784      1.0  0.17684  0.89196  0.20976  1.0000
  H   H785      1.0  0.20645  0.72119  0.24454  1.0000
  H   H786      1.0  0.21374  0.89600  0.39544  1.0000
  H   H787      1.0  0.21468  0.85635  0.32164  1.0000
  H   H788      1.0  0.20015  0.67582  0.31443  1.0000
  H   H789      1.0  0.20766  0.69698  0.34404  1.0000
  H   H790      1.0  0.19509  0.75176  0.46411  1.0000
  H   H791      1.0  0.12259  0.71320  0.44840  1.0000
  H   H792      1.0  0.12604  0.98289  0.12853  1.0000
  H   H793      1.0  0.19076  0.90061  0.39930  1.0000
  H   H794      1.0  0.18787  0.78582  0.34567  1.0000
  H   H795      1.0  0.20574  0.79917  0.33301  1.0000
  H   H796      1.0  0.20679  0.77569  0.32777  1.0000
  N   N25       1.0  0.04409  0.98021  0.24317  1.0000
  H   H797      1.0  0.19999  0.90631  0.28464  1.0000
  C   C453      1.0  0.05892  0.96935  0.25644  1.0000
  C   C454      1.0  0.21258  0.71626  0.39294  1.0000
  C   C455      1.0  0.04751  0.98312  0.20875  1.0000
  C   C456      1.0  0.04727  0.96657  0.18805  1.0000
  C   C457      1.0  0.19830  0.88979  0.35424  1.0000
  C   C458      1.0  0.20097  0.78755  0.00412  1.0000
  C   C459      1.0  0.05943  0.96769  0.29265  1.0000
  C   C460      1.0  0.07454  0.95587  0.30321  1.0000
  C   C461      1.0  0.05023  0.97111  0.15359  1.0000
  H   H798      1.0  0.20608  0.72402  0.31629  1.0000
  C   C462      1.0  0.23526  0.74967  0.47181  1.0000
  H   H799      1.0  0.12839  0.98574  0.07523  1.0000
  H   H800      1.0  0.01449  0.90132  0.24322  1.0000
  H   H801      1.0  0.05850  0.95579  0.24718  1.0000
  H   H802      1.0  0.07173  0.97439  0.24838  1.0000
  N   N26       1.0  0.21146  0.88167  0.29965  1.0000
  H   H803      1.0  0.17564  0.90837  0.23983  1.0000
  H   H804      1.0  0.17393  0.92677  0.07482  1.0000
  H   H805      1.0  0.06058  0.98893  0.20513  1.0000
  H   H806      1.0  0.03455  0.96003  0.18974  1.0000
  H   H807      1.0  0.05768  0.95718  0.19518  1.0000
  H   H808      1.0  0.21099  0.70475  0.40859  1.0000
  H   H809      1.0  0.24884  0.88326  0.31762  1.0000
  H   H810      1.0  0.24985  0.82197  0.32022  1.0000
  H   H811      1.0  0.21637  0.72757  0.40736  1.0000
  H   H812      1.0  0.03965  0.97990  0.14490  1.0000
  C   C463      1.0  0.18648  0.83721  0.30563  1.0000
  H   H813      1.0  0.10105  0.97858  0.07535  1.0000
  H   H814      1.0  0.12124  0.96237  0.14519  1.0000
  C   C464      1.0  0.13703  0.97400  0.07371  1.0000
  H   H815      1.0  0.15476  0.89701  0.44598  1.0000
  H   H816      1.0  0.07872  0.94827  0.09917  1.0000
  H   H817      1.0  0.08222  0.95439  0.05879  1.0000
  C   C465      1.0  0.08167  0.95931  0.08319  1.0000
  C   C466      1.0  0.07710  0.88234  0.44784  1.0000
  C   C467      1.0  0.10853  0.00125  0.26794  1.0000
  C   C468      1.0  0.18816  0.85706  0.30487  1.0000
  H   H818      1.0  0.23597  0.72031  0.29722  1.0000
  H   H819      1.0  0.14031  0.69777  0.45410  1.0000
  C   C469      1.0  0.20842  0.71629  0.29474  1.0000
  C   C470      1.0  0.21417  0.88934  0.33174  1.0000
  H   H820      1.0  0.19568  0.87641  0.36284  1.0000
  C   C471      1.0  0.15022  0.90560  0.42652  1.0000
  H   H821      1.0  0.10100  0.68989  0.45968  1.0000
  H   H822      1.0  0.15117  0.95559  0.15815  1.0000
  H   H823      1.0  0.13481  0.97410  0.19530  1.0000
  H   H824      1.0  0.10096  0.85157  0.44555  1.0000
  H   H825      1.0  0.13978  0.73265  0.46758  1.0000
  H   H826      1.0  0.05662  0.88210  0.48317  1.0000
  H   H827      1.0  0.19857  0.70590  0.29420  1.0000
  H   H828      1.0  0.15934  0.98364  0.02443  1.0000
  H   H829      1.0  0.22866  0.73924  0.45855  1.0000
  H   H830      1.0  0.14204  0.76496  0.46086  1.0000
  C   C472      1.0  0.15997  0.99184  0.04576  1.0000
  H   H831      1.0  0.07465  0.86850  0.44203  1.0000
  H   H832      1.0  0.24440  0.74340  0.48868  1.0000
  H   H833      1.0  0.11325  0.99757  0.29090  1.0000
  H   H834      1.0  0.20730  0.80035  0.00771  1.0000
  C   C473      1.0  0.24668  0.80557  0.45133  1.0000
  H   H835      1.0  0.07230  0.89914  0.48827  1.0000
  C   C474      1.0  0.20952  0.67257  0.29555  1.0000
  C   C475      1.0  0.14217  0.76672  0.48662  1.0000
  H   H836      1.0  0.11671  0.67102  0.16486  1.0000
  C   C476      1.0  0.13663  0.73433  0.49285  1.0000
  H   H837      1.0  0.15139  0.77733  0.49212  1.0000
  C   C477      1.0  0.19947  0.86797  0.78651  1.0000
  Fe  Fe56      1.0  0.17128  0.69443  0.94707  1.0000
  S   S108      1.0  0.16816  0.72165  0.96824  1.0000
  H   H838      1.0  0.16877  0.70927  0.55260  1.0000
  Fe  Fe57      1.0  0.16584  0.82174  0.91697  1.0000
  S   S109      1.0  0.18444  0.82609  0.95633  1.0000
  S   S110      1.0  0.15869  0.79488  0.89801  1.0000
  Fe  Fe58      1.0  0.16446  0.86067  0.90035  1.0000
  S   S111      1.0  0.18369  0.86734  0.93832  1.0000
  S   S112      1.0  0.15371  0.88402  0.87261  1.0000
  Fe  Fe59      1.0  0.19883  0.84345  0.92249  1.0000
  S   S113      1.0  0.22858  0.83920  0.92060  1.0000
  Fe  Fe60      1.0  0.16763  0.84969  0.96904  1.0000
  H   H839      1.0  0.10896  0.70756  0.58634  1.0000
  S   S114      1.0  0.18088  0.83821  0.88249  1.0000
  S   S115      1.0  0.14779  0.84392  0.93171  1.0000
  Fe  Fe61      1.0  0.07223  0.92408  0.68889  1.0000
  S   S116      1.0  0.08364  0.94011  0.64990  1.0000
  S   S117      1.0  0.04487  0.92688  0.71028  1.0000
  Fe  Fe62      1.0  0.10835  0.90945  0.70731  1.0000
  S   S118      1.0  0.12234  0.92490  0.66996  1.0000
  S   S119      1.0  0.12081  0.88739  0.73604  1.0000
  Fe  Fe63      1.0  0.10438  0.94734  0.68423  1.0000
  S   S120      1.0  0.11190  0.97617  0.68275  1.0000
  Fe  Fe64      1.0  0.10073  0.91663  0.63807  1.0000
  S   S121      1.0  0.10409  0.90920  0.58601  1.0000
  S   S122      1.0  0.09235  0.93243  0.72392  1.0000
  S   S123      1.0  0.08750  0.90000  0.67465  1.0000
  C   C478      1.0  0.10831  0.99234  0.71199  1.0000
  C   C479      1.0  0.19351  0.89397  0.81995  1.0000
  C   C480      1.0  0.10345  0.98802  0.74262  1.0000
  N   N27       1.0  0.19751  0.88759  0.78732  1.0000
  H   H840      1.0  0.10149  0.97449  0.74892  1.0000
  C   C481      1.0  0.14390  0.88457  0.83516  1.0000
  C   C482      1.0  0.14178  0.86948  0.81744  1.0000
  C   C483      1.0  0.13477  0.87067  0.78708  1.0000
  C   C484      1.0  0.12949  0.88686  0.77438  1.0000
  C   C485      1.0  0.13137  0.90194  0.79228  1.0000
  C   C486      1.0  0.13863  0.90078  0.82246  1.0000
  H   H841      1.0  0.14568  0.85692  0.82701  1.0000
  H   H842      1.0  0.13337  0.85894  0.77338  1.0000
  H   H843      1.0  0.12744  0.91450  0.78276  1.0000
  H   H844      1.0  0.14024  0.91253  0.83604  1.0000
  C   C487      1.0  0.14596  0.87626  0.53287  1.0000
  C   C488      1.0  0.14796  0.87999  0.56490  1.0000
  C   C489      1.0  0.13520  0.88974  0.58161  1.0000
  C   C490      1.0  0.12022  0.89602  0.56647  1.0000
  C   C491      1.0  0.11821  0.89233  0.53438  1.0000
  C   C492      1.0  0.13096  0.88251  0.51772  1.0000
  H   H845      1.0  0.15950  0.87528  0.57693  1.0000
  H   H846      1.0  0.13703  0.89245  0.60618  1.0000
  H   H847      1.0  0.10674  0.89718  0.52235  1.0000
  H   H848      1.0  0.07566  0.96819  0.55247  1.0000
  C   C493      1.0  0.24334  0.84134  0.88851  1.0000
  N   N28       1.0  0.12886  0.96085  0.57688  1.0000
  C   C494      1.0  0.23813  0.84813  0.85954  1.0000
  H   H849      1.0  0.06987  0.98028  0.58719  1.0000
  H   H850      1.0  0.22462  0.85171  0.85596  1.0000
  C   C495      1.0  0.16676  0.74198  0.94812  1.0000
  C   C496      1.0  0.16469  0.75741  0.96552  1.0000
  C   C497      1.0  0.16273  0.77374  0.95050  1.0000
  C   C498      1.0  0.16264  0.77481  0.91786  1.0000
  C   C499      1.0  0.16497  0.75941  0.90041  1.0000
  C   C500      1.0  0.16728  0.74311  0.91545  1.0000
  H   H851      1.0  0.15734  0.69541  0.50591  1.0000
  H   H852      1.0  0.16073  0.78546  0.96419  1.0000
  H   H853      1.0  0.16501  0.76012  0.87513  1.0000
  H   H854      1.0  0.16942  0.73142  0.90186  1.0000
  H   H855      1.0  0.16597  0.70478  0.84270  1.0000
  C   C501      1.0  0.02150  0.91516  0.66537  1.0000
  C   C502      1.0  0.02383  0.92258  0.69486  1.0000
  H   H856      1.0  0.12892  0.77078  0.49459  1.0000
  H   H857      1.0  0.03274  0.91198  0.65101  1.0000
  C   C503      1.0  0.05438  0.98592  0.72876  1.0000
  H   H858      1.0  0.23751  0.91497  0.74037  1.0000
  H   H859      1.0  0.20207  0.86345  0.76226  1.0000
  C   C504      1.0  0.11240  0.76471  0.87758  1.0000
  H   H860      1.0  0.05357  0.97817  0.75075  1.0000
  C   C505      1.0  0.16655  0.91710  0.73653  1.0000
  H   H861      1.0  0.22684  0.80243  0.90007  1.0000
  N   N29       1.0  0.07186  0.88878  0.79156  1.0000
  C   C506      1.0  0.06652  0.89069  0.75777  1.0000
  C   C507      1.0  0.08304  0.90409  0.80018  1.0000
  C   C508      1.0  0.08310  0.87244  0.79413  1.0000
  C   C509      1.0  0.05644  0.88721  0.81360  1.0000
  C   C510      1.0  0.03922  0.89677  0.80391  1.0000
  C   C511      1.0  0.05745  0.87455  0.74355  1.0000
  C   C512      1.0  0.09181  0.86903  0.82638  1.0000
  C   C513      1.0  0.14796  0.74985  0.50308  1.0000
  C   C514      1.0  0.10508  0.70045  0.86433  1.0000
  H   H862      1.0  0.10509  0.94650  0.58380  1.0000
  C   C515      1.0  0.04597  0.87951  0.71566  1.0000
  C   C516      1.0  0.09870  0.85026  0.82915  1.0000
  H   H863      1.0  0.07816  0.89334  0.74283  1.0000
  H   H864      1.0  0.05799  0.90230  0.75430  1.0000
  H   H865      1.0  0.14973  0.91537  0.53407  1.0000
  H   H866      1.0  0.09449  0.90474  0.78407  1.0000
  H   H867      1.0  0.09373  0.87263  0.77623  1.0000
  H   H868      1.0  0.07532  0.86069  0.78878  1.0000
  H   H869      1.0  0.05290  0.87327  0.81700  1.0000
  H   H870      1.0  0.06007  0.89180  0.83736  1.0000
  H   H871      1.0  0.03305  0.88998  0.78406  1.0000
  H   H872      1.0  0.16175  0.74734  0.49633  1.0000
  H   H873      1.0  0.06756  0.86505  0.73534  1.0000
  H   H874      1.0  0.04919  0.86779  0.76104  1.0000
  H   H875      1.0  0.08253  0.87138  0.84595  1.0000
  H   H876      1.0  0.10313  0.87774  0.82934  1.0000
  H   H877      1.0  0.10610  0.70354  0.83893  1.0000
  H   H878      1.0  0.25116  0.89443  0.94912  1.0000
  C   C517      1.0  0.10843  0.73171  0.87623  1.0000
  H   H879      1.0  0.13338  0.95082  0.51517  1.0000
  H   H880      1.0  0.12779  0.69149  0.50851  1.0000
  C   C518      1.0  0.11984  0.71347  0.97466  1.0000
  H   H881      1.0  0.20096  0.72733  0.93056  1.0000
  H   H882      1.0  0.03009  0.99973  0.73451  1.0000
  H   H883      1.0  0.05362  0.88647  0.69750  1.0000
  H   H884      1.0  0.04053  0.86756  0.70509  1.0000
  H   H885      1.0  0.03493  0.88806  0.72326  1.0000
  H   H886      1.0  0.10594  0.84862  0.85146  1.0000
  H   H887      1.0  0.08775  0.84092  0.82903  1.0000
  H   H888      1.0  0.10775  0.84714  0.80953  1.0000
  C   C519      1.0  0.21457  0.89538  0.77680  1.0000
  C   C520      1.0  0.21912  0.89348  0.74153  1.0000
  C   C521      1.0  0.20531  0.88642  0.84631  1.0000
  C   C522      1.0  0.20299  0.89658  0.87674  1.0000
  H   H889      1.0  0.07802  0.87676  0.49799  1.0000
  H   H890      1.0  0.22563  0.88932  0.78994  1.0000
  H   H891      1.0  0.21506  0.90951  0.78267  1.0000
  H   H892      1.0  0.17978  0.89121  0.82649  1.0000
  H   H893      1.0  0.21107  0.86359  0.80021  1.0000
  H   H894      1.0  0.21935  0.87960  0.73432  1.0000
  H   H895      1.0  0.20954  0.90066  0.72676  1.0000
  H   H896      1.0  0.20185  0.87267  0.85126  1.0000
  H   H897      1.0  0.20720  0.91029  0.87365  1.0000
  H   H898      1.0  0.21103  0.89037  0.89539  1.0000
  H   H899      1.0  0.24606  0.87539  0.97222  1.0000
  C   C523      1.0  0.11633  0.69704  0.57400  1.0000
  H   H900      1.0  0.08329  0.69244  0.89458  1.0000
  C   C524      1.0  0.13560  0.97633  0.55853  1.0000
  H   H901      1.0  0.08843  0.90244  0.82410  1.0000
  C   C525      1.0  0.13392  0.93925  0.53086  1.0000
  H   H902      1.0  0.17619  0.83085  0.80824  1.0000
  H   H903      1.0  0.10652  0.95705  0.54678  1.0000
  H   H904      1.0  0.14921  0.97381  0.55024  1.0000
  H   H905      1.0  0.12786  0.97819  0.53674  1.0000
  N   N30       1.0  0.11522  0.71345  0.88326  1.0000
  H   H906      1.0  0.10895  0.69304  0.55306  1.0000
  H   H907      1.0  0.22447  0.77451  0.98984  1.0000
  C   C526      1.0  0.13788  0.94443  0.56516  1.0000
  H   H908      1.0  0.04900  0.97797  0.70947  1.0000
  C   C527      1.0  0.15461  0.96673  0.65466  1.0000
  H   H909      1.0  0.19166  0.92008  0.75726  1.0000
  H   H910      1.0  0.17911  0.86172  0.82157  1.0000
  H   H911      1.0  0.14148  0.70606  0.58746  1.0000
  C   C528      1.0  0.15734  0.70996  0.50547  1.0000
  H   H912      1.0  0.19931  0.71361  0.53703  1.0000
  C   C529      1.0  0.18963  0.70942  0.51945  1.0000
  H   H913      1.0  0.12152  0.72664  0.54651  1.0000
  H   H914      1.0  0.12668  0.72216  0.99119  1.0000
  H   H915      1.0  0.04131  0.91042  0.79636  1.0000
  H   H916      1.0  0.10587  0.71298  0.98150  1.0000
  C   C530      1.0  0.13425  0.71101  0.87479  1.0000
  H   H917      1.0  0.14352  0.72912  0.55559  1.0000
  H   H918      1.0  0.01063  0.93222  0.73610  1.0000
  H   H919      1.0  0.19875  0.83552  0.81587  1.0000
  H   H920      1.0  0.16017  0.71632  0.80748  1.0000
  H   H921      1.0  0.09221  0.93465  0.83231  1.0000
  C   C531      1.0  0.07828  0.96956  0.57786  1.0000
  H   H922      1.0  0.22330  0.74484  0.95752  1.0000
  H   H923      1.0  0.14653  0.99403  0.59362  1.0000
  S   S124      1.0  0.19014  0.67580  0.97037  1.0000
  C   C532      1.0  0.13465  0.70315  0.56522  1.0000
  H   H924      1.0  0.14689  0.95881  0.67143  1.0000
  H   H925      1.0  0.12373  0.99746  0.58774  1.0000
  S   S125      1.0  0.18027  0.68824  0.89839  1.0000
  H   H926      1.0  0.13448  0.93304  0.58029  1.0000
  H   H927      1.0  0.07677  0.69501  0.82381  1.0000
  H   H928      1.0  0.17163  0.72968  0.53299  1.0000
  C   C533      1.0  0.17951  0.91302  0.76273  1.0000
  H   H929      1.0  0.06807  0.92554  0.77755  1.0000
  N   N31       1.0  0.22312  0.77747  0.92337  1.0000
  H   H930      1.0  0.19131  0.83297  0.77603  1.0000
  C   C534      1.0  0.07595  0.68852  0.84706  1.0000
  H   H931      1.0  0.07469  0.95726  0.58996  1.0000
  C   C535      1.0  0.17137  0.71541  0.52952  1.0000
  H   H932      1.0  0.07904  0.71233  0.87283  1.0000
  H   H933      1.0  0.11081  0.68708  0.86719  1.0000
  C   C536      1.0  0.15777  0.71556  0.83309  1.0000
  N   N32       1.0  0.13909  0.71727  0.51033  1.0000
  S   S126      1.0  0.22801  0.67232  0.91311  1.0000
  C   C537      1.0  0.18347  0.85754  0.79799  1.0000
  H   H934      1.0  0.23190  0.78389  0.87656  1.0000
  H   H935      1.0  0.16163  0.72811  0.84373  1.0000
  C   C538      1.0  0.21121  0.77662  0.98027  1.0000
  H   H936      1.0  0.21508  0.79974  0.95129  1.0000
  C   C539      1.0  0.23711  0.90089  0.73431  1.0000
  C   C540      1.0  0.18270  0.89304  0.76613  1.0000
  H   H937      1.0  0.10310  0.76629  0.89741  1.0000
  H   H938      1.0  0.12224  0.77519  0.87916  1.0000
  H   H939      1.0  0.15405  0.91031  0.74066  1.0000
  H   H940      1.0  0.17196  0.91295  0.71355  1.0000
  H   H941      1.0  0.13538  0.69941  0.82799  1.0000
  C   C541      1.0  0.10951  0.95869  0.57201  1.0000
  C   C542      1.0  0.15176  0.96046  0.62123  1.0000
  H   H942      1.0  0.18914  0.89654  0.88446  1.0000
  H   H943      1.0  0.17244  0.85924  0.78153  1.0000
  H   H944      1.0  0.12578  0.70022  0.97673  1.0000
  C   C543      1.0  0.12159  0.74690  0.87927  1.0000
  C   C544      1.0  0.21635  0.75965  0.91445  1.0000
  C   C545      1.0  0.22258  0.78899  0.89457  1.0000
  S   S127      1.0  0.16288  0.86430  0.51297  1.0000
  C   C546      1.0  0.22415  0.74345  0.93179  1.0000
  H   H945      1.0  0.08181  0.67519  0.84542  1.0000
  C   C547      1.0  0.20445  0.79148  0.87911  1.0000
  C   C548      1.0  0.13613  0.99419  0.57565  1.0000
  C   C549      1.0  0.13448  0.71993  0.54437  1.0000
  H   H946      1.0  0.12516  0.95175  0.62431  1.0000
  C   C550      1.0  0.20606  0.80082  0.84762  1.0000
  C   C551      1.0  0.13231  0.96213  0.61151  1.0000
  H   H947      1.0  0.15604  0.94654  0.62028  1.0000
  H   H948      1.0  0.20190  0.75930  0.91727  1.0000
  H   H949      1.0  0.21882  0.75700  0.88916  1.0000
  H   H950      1.0  0.16861  0.96534  0.66081  1.0000
  H   H951      1.0  0.16028  0.96804  0.60530  1.0000
  H   H952      1.0  0.10532  0.76626  0.85511  1.0000
  H   H953      1.0  0.19783  0.78629  0.94005  1.0000
  H   H954      1.0  0.13069  0.72245  0.82749  1.0000
  H   H955      1.0  0.10013  0.98585  0.56991  1.0000
  H   H956      1.0  0.18439  0.88717  0.74251  1.0000
  C   C552      1.0  0.09746  0.97378  0.58336  1.0000
  H   H957      1.0  0.19598  0.79978  0.89421  1.0000
  H   H958      1.0  0.19784  0.77891  0.87515  1.0000
  C   C553      1.0  0.08531  0.69920  0.87182  1.0000
  H   H959      1.0  0.14244  0.72051  0.88706  1.0000
  H   H960      1.0  0.20456  0.76391  0.97831  1.0000
  C   C554      1.0  0.21478  0.72672  0.92287  1.0000
  H   H961      1.0  0.25214  0.80212  0.92168  1.0000
  H   H962      1.0  0.15229  0.94567  0.56689  1.0000
  H   H963      1.0  0.13917  0.69809  0.88331  1.0000
  H   H964      1.0  0.17015  0.88779  0.77503  1.0000
  H   H965      1.0  0.21377  0.79274  0.83088  1.0000
  H   H966      1.0  0.19283  0.80312  0.83779  1.0000
  H   H967      1.0  0.21247  0.81362  0.85061  1.0000
  C   C555      1.0  0.14779  0.92663  0.51796  1.0000
  H   H968      1.0  0.12893  0.74638  0.90143  1.0000
  H   H969      1.0  0.11251  0.70899  0.50300  1.0000
  H   H970      1.0  0.22111  0.71530  0.93456  1.0000
  H   H971      1.0  0.11591  0.73387  0.94122  1.0000
  H   H972      1.0  0.24531  0.87426  0.93021  1.0000
  H   H973      1.0  0.12689  0.97443  0.62129  1.0000
  S   S128      1.0  0.15000  0.67450  0.94681  1.0000
  H   H974      1.0  0.10337  0.73259  0.85187  1.0000
  H   H975      1.0  0.21932  0.88679  0.83987  1.0000
  H   H976      1.0  0.02302  0.88357  0.83853  1.0000
  C   C556      1.0  0.08703  0.93655  0.80829  1.0000
  H   H977      1.0  0.16379  0.93137  0.73559  1.0000
  H   H978      1.0  0.11734  0.68559  0.58998  1.0000
  H   H979      1.0  0.06378  0.92279  0.81891  1.0000
  H   H980      1.0  0.09695  0.73479  0.89142  1.0000
  C   C557      1.0  0.12186  0.72058  0.94138  1.0000
  H   H981      1.0  0.13595  0.72143  0.93636  1.0000
  H   H982      1.0  0.21535  0.72461  0.89719  1.0000
  C   C558      1.0  0.00900  0.92652  0.71323  1.0000
  C   C559      1.0  0.02603  0.89707  0.83082  1.0000
  C   C560      1.0  0.11268  0.70887  0.91738  1.0000
  H   H983      1.0  0.06196  0.68730  0.85349  1.0000
  H   H984      1.0  0.16042  0.93336  0.51489  1.0000
  H   H985      1.0  0.09867  0.70966  0.92399  1.0000
  H   H986      1.0  0.09908  0.97621  0.60874  1.0000
  H   H987      1.0  0.17398  0.91835  0.78485  1.0000
  C   C561      1.0  0.13850  0.71204  0.83924  1.0000
  H   H988      1.0  0.09812  0.93645  0.79150  1.0000
  H   H989      1.0  0.13132  0.74643  0.85997  1.0000
  H   H990      1.0  0.11697  0.69508  0.92168  1.0000
  C   C562      1.0  0.18776  0.83802  0.79956  1.0000
  H   H991      1.0  0.15068  0.98069  0.65703  1.0000
  H   H992      1.0  0.19433  0.90846  0.82085  1.0000
  C   C563      1.0  0.07400  0.92229  0.80048  1.0000
  H   H993      1.0  0.14718  0.75233  0.52853  1.0000
  H   H994      1.0  0.19032  0.69495  0.51781  1.0000
  H   H995      1.0  0.14209  0.69219  0.55439  1.0000
  H   H996      1.0  0.08044  0.94955  0.80700  1.0000
  H   H997      1.0  0.12113  0.93262  0.52992  1.0000
  H   H998      1.0  0.24002  0.89951  0.70895  1.0000
  C   C564      1.0  0.21162  0.78581  0.94799  1.0000
  H   H999      1.0  0.03118  0.90453  0.85090  1.0000
  H   H1000     1.0  0.24737  0.89369  0.74763  1.0000
  H   H1001     1.0  0.06826  0.98853  0.72328  1.0000
  C   C565      1.0  0.04405  0.00307  0.73162  1.0000
  C   C566      1.0  0.25047  0.85040  0.83527  1.0000
  C   C567      1.0  0.25237  0.87997  0.95027  1.0000
  H   H1002     1.0  0.23809  0.74159  0.92523  1.0000
  H   H1003     1.0  0.01373  0.90352  0.82290  1.0000
  H   H1004     1.0  0.24995  0.77002  0.91465  1.0000
  C   C568      1.0  0.12608  0.70458  0.49736  1.0000
  H   H1005     1.0  0.12267  0.73860  0.49403  1.0000
  H   H1006     1.0  0.16433  0.75671  0.99080  1.0000
  H   H1007     1.0  0.09789  0.99767  0.78905  1.0000
  C   C569      1.0  0.25080  0.79352  0.94245  1.0000
  C   C570      1.0  0.10141  0.00122  0.76534  1.0000
  H   H1008     1.0  0.24330  0.80062  0.96077  1.0000
  C   C571      1.0  0.24193  0.77613  0.93361  1.0000
  H   H1009     1.0  0.24344  0.76732  0.95409  1.0000
  H   H1010     1.0  0.24635  0.85588  0.81310  1.0000
  H   H1011     1.0  0.19320  0.71526  0.49652  1.0000
  H   H1012     1.0  0.14363  0.92159  0.49491  1.0000
  C   C572      1.0  0.00453  0.91179  0.65443  1.0000
  H   H1013     1.0  0.12935  0.87989  0.49315  1.0000
  H   H1014     1.0  0.34101  0.07252  0.14896  1.0000
  H   H1015     1.0  0.36171  0.08649  0.11178  1.0000
  Fe  Fe65      1.0  0.33404  0.31178  0.18125  1.0000
  S   S129      1.0  0.33065  0.28433  0.20163  1.0000
  C   C573      1.0  0.27391  0.21795  0.08697  1.0000
  Fe  Fe66      1.0  0.43931  0.09125  0.43296  1.0000
  S   S130      1.0  0.43252  0.07200  0.39564  1.0000
  S   S131      1.0  0.46618  0.10266  0.44355  1.0000
  Fe  Fe67      1.0  0.40271  0.08942  0.46301  1.0000
  S   S132      1.0  0.39388  0.06947  0.42778  1.0000
  N   N33       1.0  0.29300  0.21504  0.09416  1.0000
  Fe  Fe68      1.0  0.42007  0.05636  0.43450  1.0000
  S   S133      1.0  0.42877  0.02761  0.43981  1.0000
  Fe  Fe69      1.0  0.40669  0.08676  0.39144  1.0000
  S   S134      1.0  0.39361  0.08961  0.34271  1.0000
  S   S135      1.0  0.42798  0.07511  0.47177  1.0000
  S   S136      1.0  0.41433  0.10733  0.42655  1.0000
  Fe  Fe70      1.0  0.33868  0.18195  0.16014  1.0000
  S   S137      1.0  0.32319  0.17518  0.20301  1.0000
  S   S138      1.0  0.34691  0.20907  0.14310  1.0000
  Fe  Fe71      1.0  0.33927  0.14373  0.13799  1.0000
  S   S139      1.0  0.32350  0.13458  0.17968  1.0000
  S   S140      1.0  0.34433  0.12466  0.09802  1.0000
  Fe  Fe72      1.0  0.30685  0.15873  0.17089  1.0000
  S   S141      1.0  0.27697  0.16171  0.17191  1.0000
  Fe  Fe73      1.0  0.34127  0.15162  0.20810  1.0000
  S   S142      1.0  0.35409  0.14707  0.25650  1.0000
  S   S143      1.0  0.32152  0.16663  0.12805  1.0000
  S   S144      1.0  0.35785  0.15952  0.16653  1.0000
  H   H1016     1.0  0.35726  0.32503  0.30812  1.0000
  C   C574      1.0  0.33646  0.07854  0.12670  1.0000
  H   H1017     1.0  0.28072  0.15189  0.10563  1.0000
  H   H1018     1.0  0.34742  0.06001  0.03973  1.0000
  C   C575      1.0  0.39267  0.11792  0.03480  1.0000
  C   C576      1.0  0.39377  0.12754  0.06267  1.0000
  C   C577      1.0  0.37902  0.13010  0.08202  1.0000
  C   C578      1.0  0.36302  0.12302  0.07361  1.0000
  C   C579      1.0  0.36190  0.11355  0.04562  1.0000
  C   C580      1.0  0.37664  0.11098  0.02629  1.0000
  H   H1019     1.0  0.40613  0.13302  0.06932  1.0000
  H   H1020     1.0  0.38005  0.13742  0.10349  1.0000
  H   H1021     1.0  0.34951  0.10822  0.03877  1.0000
  H   H1022     1.0  0.25892  0.14994  0.06287  1.0000
  C   C581      1.0  0.38205  0.10576  0.31988  1.0000
  C   C582      1.0  0.38081  0.12336  0.32851  1.0000
  C   C583      1.0  0.37211  0.13565  0.30897  1.0000
  C   C584      1.0  0.36442  0.13065  0.28054  1.0000
  C   C585      1.0  0.36556  0.11303  0.27201  1.0000
  C   C586      1.0  0.37439  0.10076  0.29139  1.0000
  H   H1023     1.0  0.38665  0.12752  0.35016  1.0000
  H   H1024     1.0  0.37136  0.14919  0.31599  1.0000
  H   H1025     1.0  0.35958  0.10880  0.25058  1.0000
  H   H1026     1.0  0.37522  0.08723  0.28437  1.0000
  H   H1027     1.0  0.33966  0.18255  0.04737  1.0000
  C   C587      1.0  0.39026  0.27049  0.33227  1.0000
  H   H1028     1.0  0.38489  0.32818  0.25547  1.0000
  H   H1029     1.0  0.33690  0.29921  0.30203  1.0000
  H   H1030     1.0  0.35090  0.02906  0.05207  1.0000
  C   C588      1.0  0.33494  0.26357  0.18447  1.0000
  C   C589      1.0  0.33020  0.24841  0.20099  1.0000
  C   C590      1.0  0.33370  0.23164  0.18870  1.0000
  C   C591      1.0  0.34200  0.22984  0.15966  1.0000
  C   C592      1.0  0.34674  0.24501  0.14314  1.0000
  C   C593      1.0  0.34324  0.26178  0.15543  1.0000
  H   H1031     1.0  0.32389  0.24962  0.22358  1.0000
  H   H1032     1.0  0.33025  0.22013  0.20195  1.0000
  H   H1033     1.0  0.35328  0.24377  0.12076  1.0000
  H   H1034     1.0  0.34706  0.27329  0.14251  1.0000
  H   H1035     1.0  0.27251  0.22299  0.06258  1.0000
  C   C594      1.0  0.49046  0.08052  0.41403  1.0000
  C   C595      1.0  0.48755  0.09443  0.43464  1.0000
  H   H1036     1.0  0.42746  0.07836  0.04721  1.0000
  H   H1037     1.0  0.47945  0.07417  0.40349  1.0000
  H   H1038     1.0  0.35501  0.32990  0.26766  1.0000
  H   H1039     1.0  0.38448  0.03546  0.08973  1.0000
  H   H1040     1.0  0.31566  0.23112  0.10141  1.0000
  H   H1041     1.0  0.32024  0.18568  0.02422  1.0000
  H   H1042     1.0  0.28043  0.19982  0.18524  1.0000
  H   H1043     1.0  0.28974  0.19531  0.13032  1.0000
  C   C596      1.0  0.26717  0.15517  0.11015  1.0000
  H   H1044     1.0  0.41329  0.09153  0.07136  1.0000
  C   C597      1.0  0.38584  0.06879  0.07566  1.0000
  H   H1045     1.0  0.35930  0.30672  0.23124  1.0000
  H   H1046     1.0  0.30283  0.20618  0.19063  1.0000
  H   H1047     1.0  0.39887  0.00655  0.40294  1.0000
  H   H1048     1.0  0.37239  0.26864  0.20839  1.0000
  H   H1049     1.0  0.39104  0.06567  0.09940  1.0000
  C   C598      1.0  0.36841  0.05410  0.00796  1.0000
  H   H1050     1.0  0.42024  0.32829  0.29653  1.0000
  N   N34       1.0  0.37048  0.05731  0.06881  1.0000
  C   C599      1.0  0.30598  0.33379  0.05614  1.0000
  H   H1051     1.0  0.34573  0.05176  0.09134  1.0000
  H   H1052     1.0  0.40176  0.26153  0.33065  1.0000
  N   N35       1.0  0.40981  0.13435  0.21231  1.0000
  C   C600      1.0  0.41108  0.15385  0.21670  1.0000
  C   C601      1.0  0.42332  0.12847  0.18862  1.0000
  C   C602      1.0  0.39210  0.13086  0.19841  1.0000
  C   C603      1.0  0.41166  0.12422  0.24260  1.0000
  C   C604      1.0  0.42404  0.13175  0.26773  1.0000
  C   C605      1.0  0.39618  0.16244  0.23625  1.0000
  C   C606      1.0  0.38818  0.11164  0.18985  1.0000
  C   C607      1.0  0.44268  0.13151  0.19682  1.0000
  C   C608      1.0  0.45458  0.12691  0.16915  1.0000
  C   C609      1.0  0.42863  0.11811  0.29268  1.0000
  C   C610      1.0  0.40099  0.18065  0.24739  1.0000
  C   C611      1.0  0.36951  0.10995  0.17786  1.0000
  H   H1053     1.0  0.41115  0.16059  0.19351  1.0000
  H   H1054     1.0  0.42359  0.15739  0.22765  1.0000
  H   H1055     1.0  0.42254  0.11418  0.18469  1.0000
  H   H1056     1.0  0.42064  0.13485  0.16556  1.0000
  H   H1057     1.0  0.39013  0.13893  0.17690  1.0000
  H   H1058     1.0  0.38157  0.13484  0.21499  1.0000
  H   H1059     1.0  0.39880  0.12306  0.25453  1.0000
  H   H1060     1.0  0.41577  0.11049  0.23769  1.0000
  H   H1061     1.0  0.41758  0.14294  0.27976  1.0000
  H   H1062     1.0  0.43641  0.13654  0.25780  1.0000
  H   H1063     1.0  0.38427  0.16391  0.22171  1.0000
  H   H1064     1.0  0.39285  0.15441  0.25702  1.0000
  H   H1065     1.0  0.38974  0.10298  0.21059  1.0000
  H   H1066     1.0  0.39685  0.10687  0.17080  1.0000
  H   H1067     1.0  0.44517  0.14529  0.20290  1.0000
  H   H1068     1.0  0.44662  0.12287  0.21654  1.0000
  H   H1069     1.0  0.46841  0.12888  0.17576  1.0000
  H   H1070     1.0  0.45303  0.11303  0.16241  1.0000
  H   H1071     1.0  0.45157  0.13542  0.14870  1.0000
  H   H1072     1.0  0.43692  0.12403  0.31091  1.0000
  H   H1073     1.0  0.41665  0.11323  0.30417  1.0000
  H   H1074     1.0  0.43590  0.10692  0.28220  1.0000
  H   H1075     1.0  0.40406  0.18923  0.22713  1.0000
  H   H1076     1.0  0.38977  0.18650  0.26038  1.0000
  H   H1077     1.0  0.41237  0.17992  0.26336  1.0000
  H   H1078     1.0  0.36673  0.09605  0.17300  1.0000
  H   H1079     1.0  0.35993  0.11480  0.19546  1.0000
  H   H1080     1.0  0.36775  0.11754  0.15584  1.0000
  C   C612      1.0  0.36164  0.06274  0.03866  1.0000
  H   H1081     1.0  0.39458  0.02074  0.46767  1.0000
  C   C613      1.0  0.48965  0.02573  0.44589  1.0000
  C   C614      1.0  0.25474  0.15402  0.08595  1.0000
  H   H1082     1.0  0.37841  0.26247  0.33540  1.0000
  C   C615      1.0  0.35766  0.05950  0.09561  1.0000
  H   H1083     1.0  0.32582  0.21112  0.05805  1.0000
  H   H1084     1.0  0.37226  0.30032  0.32664  1.0000
  H   H1085     1.0  0.47197  0.05698  0.00010  1.0000
  H   H1086     1.0  0.26661  0.27569  0.11426  1.0000
  H   H1087     1.0  0.30198  0.32820  0.07897  1.0000
  C   C616      1.0  0.40945  0.00779  0.02300  1.0000
  H   H1088     1.0  0.30652  0.23290  0.06326  1.0000
  C   C617      1.0  0.42050  0.01018  0.46288  1.0000
  H   H1089     1.0  0.26609  0.19132  0.07375  1.0000
  H   H1090     1.0  0.26673  0.27192  0.15599  1.0000
  C   C618      1.0  0.26207  0.20178  0.09025  1.0000
  H   H1091     1.0  0.26240  0.19648  0.11443  1.0000
  S   S145      1.0  0.35913  0.32592  0.17227  1.0000
  H   H1092     1.0  0.29808  0.23174  0.15584  1.0000
  H   H1093     1.0  0.36856  0.28755  0.18371  1.0000
  H   H1094     1.0  0.50005  0.11329  0.46395  1.0000
  H   H1095     1.0  0.25988  0.29288  0.14071  1.0000
  H   H1096     1.0  0.29486  0.20366  0.04780  1.0000
  H   H1097     1.0  0.38174  0.08278  0.07621  1.0000
  H   H1098     1.0  0.38784  0.27229  0.28267  1.0000
  H   H1099     1.0  0.28316  0.25187  0.07869  1.0000
  C   C619      1.0  0.40127  0.06824  0.05221  1.0000
  H   H1100     1.0  0.38913  0.30474  0.21535  1.0000
  H   H1101     1.0  0.31649  0.26297  0.11236  1.0000
  H   H1102     1.0  0.33232  0.09223  0.13156  1.0000
  C   C620      1.0  0.26199  0.16032  0.14022  1.0000
  S   S146      1.0  0.41169  0.11473  0.01167  1.0000
  H   H1103     1.0  0.32617  0.19750  0.09200  1.0000
  C   C621      1.0  0.32323  0.32339  0.29523  1.0000
  C   C622      1.0  0.32521  0.18381  0.04838  1.0000
  H   H1104     1.0  0.45449  0.02303  0.02199  1.0000
  C   C623      1.0  0.50211  0.10253  0.44800  1.0000
  H   H1105     1.0  0.36340  0.05426  0.11774  1.0000
  C   C624      1.0  0.41697  0.07789  0.06519  1.0000
  C   C625      1.0  0.38894  0.28152  0.30245  1.0000
  N   N36       1.0  0.37102  0.30700  0.27739  1.0000
  C   C626      1.0  0.33310  0.10648  0.48081  1.0000
  C   C627      1.0  0.36739  0.29808  0.24657  1.0000
  C   C628      1.0  0.35566  0.31890  0.28487  1.0000
  C   C629      1.0  0.37272  0.29375  0.30349  1.0000
  H   H1106     1.0  0.39376  0.31957  0.32477  1.0000
  C   C630      1.0  0.46428  0.04893  0.01675  1.0000
  C   C631      1.0  0.33743  0.31028  0.28530  1.0000
  C   C632      1.0  0.38337  0.29283  0.22593  1.0000
  C   C633      1.0  0.37817  0.28087  0.19916  1.0000
  H   H1107     1.0  0.26802  0.22821  0.10202  1.0000
  C   C634      1.0  0.30624  0.26451  0.09432  1.0000
  H   H1108     1.0  0.25583  0.32349  0.08285  1.0000
  C   C635      1.0  0.35110  0.07840  0.10227  1.0000
  H   H1109     1.0  0.32484  0.32705  0.32010  1.0000
  H   H1110     1.0  0.35930  0.28627  0.25042  1.0000
  H   H1111     1.0  0.39188  0.27895  0.35306  1.0000
  H   H1112     1.0  0.34653  0.31794  0.36724  1.0000
  H   H1113     1.0  0.28536  0.22014  0.20414  1.0000
  H   H1114     1.0  0.42216  0.07110  0.08626  1.0000
  H   H1115     1.0  0.34600  0.08468  0.08068  1.0000
  H   H1116     1.0  0.32000  0.17146  0.05815  1.0000
  C   C636      1.0  0.29363  0.24927  0.09607  1.0000
  H   H1117     1.0  0.38269  0.05504  0.00517  1.0000
  H   H1118     1.0  0.31250  0.26524  0.07086  1.0000
  H   H1119     1.0  0.31020  0.31745  0.29246  1.0000
  H   H1120     1.0  0.33402  0.30534  0.26179  1.0000
  S   S147      1.0  0.32358  0.33311  0.21274  1.0000
  H   H1121     1.0  0.39370  0.28602  0.23938  1.0000
  C   C637      1.0  0.29985  0.20119  0.07190  1.0000
  H   H1122     1.0  0.33187  0.10872  0.45521  1.0000
  H   H1123     1.0  0.32496  0.07140  0.11801  1.0000
  C   C638      1.0  0.37645  0.03843  0.06864  1.0000
  C   C639      1.0  0.40834  0.02112  0.00011  1.0000
  C   C640      1.0  0.38690  0.31838  0.27458  1.0000
  H   H1124     1.0  0.29496  0.18808  0.07886  1.0000
  H   H1125     1.0  0.36237  0.07712  0.03555  1.0000
  H   H1126     1.0  0.39746  0.07494  0.03013  1.0000
  H   H1127     1.0  0.38529  0.03568  0.04865  1.0000
  C   C641      1.0  0.28949  0.21101  0.18532  1.0000
  C   C642      1.0  0.29570  0.20837  0.12712  1.0000
  H   H1128     1.0  0.37561  0.10375  0.00474  1.0000
  H   H1129     1.0  0.30979  0.20599  0.13161  1.0000
  C   C643      1.0  0.40325  0.01001  0.47356  1.0000
  H   H1130     1.0  0.38983  0.27737  0.18489  1.0000
  H   H1131     1.0  0.27570  0.22519  0.15013  1.0000
  C   C644      1.0  0.39210  0.32847  0.30445  1.0000
  C   C645      1.0  0.30303  0.23166  0.08850  1.0000
  H   H1132     1.0  0.40122  0.28888  0.30022  1.0000
  H   H1133     1.0  0.39859  0.31072  0.26739  1.0000
  S   S148      1.0  0.32091  0.32248  0.13817  1.0000
  C   C646      1.0  0.25968  0.27856  0.13654  1.0000
  H   H1134     1.0  0.36516  0.04003  0.00753  1.0000
  C   C647      1.0  0.36157  0.02486  0.06798  1.0000
  C   C648      1.0  0.28924  0.22046  0.15382  1.0000
  H   H1135     1.0  0.28757  0.24936  0.11956  1.0000
  H   H1136     1.0  0.29912  0.27699  0.09877  1.0000
  C   C649      1.0  0.46307  0.03012  0.00533  1.0000
  H   H1137     1.0  0.40572  0.05476  0.04710  1.0000
  H   H1138     1.0  0.35597  0.02333  0.09186  1.0000
  C   C650      1.0  0.32002  0.19935  0.06892  1.0000
  H   H1139     1.0  0.47082  0.04913  0.03985  1.0000
  H   H1140     1.0  0.36135  0.28490  0.30365  1.0000
  C   C651      1.0  0.36816  0.00692  0.05746  1.0000
  H   H1141     1.0  0.34898  0.32370  0.42335  1.0000
  H   H1142     1.0  0.41299  0.01104  0.04671  1.0000
  H   H1143     1.0  0.41121  0.03445  0.00608  1.0000
  H   H1144     1.0  0.33056  0.09250  0.48580  1.0000
  H   H1145     1.0  0.45104  0.05475  0.01959  1.0000
  H   H1146     1.0  0.37233  0.00738  0.03256  1.0000
  H   H1147     1.0  0.36890  0.32878  0.40296  1.0000
  H   H1148     1.0  0.47760  0.02216  0.45880  1.0000
  H   H1149     1.0  0.48874  0.03984  0.43970  1.0000
  H   H1150     1.0  0.32337  0.13190  0.49211  1.0000
  C   C652      1.0  0.34579  0.33163  0.37567  1.0000
  H   H1151     1.0  0.34672  0.10945  0.48762  1.0000
  H   H1152     1.0  0.48831  0.00554  0.07542  1.0000
  H   H1153     1.0  0.28052  0.33009  0.11821  1.0000
  H   H1154     1.0  0.35513  0.33102  0.47137  1.0000
  H   H1155     1.0  0.41275  0.33440  0.47230  1.0000
  C   C653      1.0  0.35518  0.33303  0.40695  1.0000
  H   H1156     1.0  0.30261  0.32435  0.03757  1.0000
  H   H1157     1.0  0.38297  0.33456  0.45010  1.0000
  H   H1158     1.0  0.47628  0.02408  0.00648  1.0000
  H   H1159     1.0  0.37913  0.04573  0.48189  1.0000
  H   H1160     1.0  0.30694  0.11522  0.48974  1.0000
  H   H1161     1.0  0.49028  0.01794  0.42404  1.0000
  C   C654      1.0  0.26808  0.33667  0.12129  1.0000
  H   H1162     1.0  0.32367  0.33542  0.28068  1.0000
  H   H1163     1.0  0.33183  0.33549  0.37821  1.0000
  H   H1164     1.0  0.32035  0.33547  0.05607  1.0000
  C   C655      1.0  0.25399  0.33284  0.10149  1.0000
  H   H1165     1.0  0.45247  0.14264  0.92095  1.0000
  H   H1166     1.0  0.43391  0.01303  0.93184  1.0000
  Fe  Fe74      1.0  0.34544  0.32036  0.66886  1.0000
  S   S149      1.0  0.35859  0.29380  0.65961  1.0000
  H   H1167     1.0  0.40886  0.04114  0.50725  1.0000
  Fe  Fe75      1.0  0.44487  0.07996  0.93389  1.0000
  S   S150      1.0  0.42658  0.06861  0.89889  1.0000
  S   S151      1.0  0.47295  0.07036  0.92717  1.0000
  Fe  Fe76      1.0  0.41441  0.09747  0.96860  1.0000
  S   S152      1.0  0.39403  0.08715  0.93568  1.0000
  C   C656      1.0  0.50204  0.11248  0.86728  1.0000
  Fe  Fe77      1.0  0.40958  0.06177  0.93986  1.0000
  S   S153      1.0  0.39974  0.03371  0.94077  1.0000
  Fe  Fe78      1.0  0.41285  0.09478  0.89694  1.0000
  S   S154      1.0  0.41066  0.10712  0.84753  1.0000
  S   S155      1.0  0.42852  0.07168  0.97488  1.0000
  S   S156      1.0  0.43237  0.10653  0.92989  1.0000
  Fe  Fe79      1.0  0.33891  0.19011  0.67951  1.0000
  S   S157      1.0  0.32325  0.17044  0.70623  1.0000
  S   S158      1.0  0.33199  0.21767  0.69686  1.0000
  Fe  Fe80      1.0  0.35581  0.16079  0.64076  1.0000
  S   S159      1.0  0.34119  0.13942  0.66551  1.0000
  S   S160      1.0  0.37568  0.15747  0.60119  1.0000
  Fe  Fe81      1.0  0.31796  0.15776  0.66030  1.0000
  S   S161      1.0  0.29024  0.14838  0.65160  1.0000
  Fe  Fe82      1.0  0.34770  0.15388  0.70998  1.0000
  S   S162      1.0  0.35188  0.14304  0.76006  1.0000
  S   S163      1.0  0.33213  0.17826  0.63302  1.0000
  S   S164      1.0  0.36372  0.17431  0.68550  1.0000
  C   C657      1.0  0.27837  0.16775  0.60033  1.0000
  C   C658      1.0  0.27438  0.15595  0.62434  1.0000
  H   H1168     1.0  0.29140  0.17282  0.59842  1.0000
  C   C659      1.0  0.33757  0.21708  0.57804  1.0000
  C   C660      1.0  0.38253  0.11195  0.53146  1.0000
  C   C661      1.0  0.37150  0.11021  0.55770  1.0000
  C   C662      1.0  0.36953  0.12384  0.57959  1.0000
  C   C663      1.0  0.37834  0.13954  0.57517  1.0000
  C   C664      1.0  0.38948  0.14121  0.54909  1.0000
  C   C665      1.0  0.39162  0.12749  0.52740  1.0000
  H   H1169     1.0  0.39412  0.07675  0.56322  1.0000
  H   H1170     1.0  0.36130  0.12220  0.59995  1.0000
  H   H1171     1.0  0.39644  0.15325  0.54552  1.0000
  C   C666      1.0  0.26894  0.19586  0.66793  1.0000
  C   C667      1.0  0.39387  0.11652  0.82339  1.0000
  C   C668      1.0  0.37689  0.11978  0.83432  1.0000
  C   C669      1.0  0.36430  0.12776  0.81454  1.0000
  C   C670      1.0  0.36836  0.13252  0.78346  1.0000
  C   C671      1.0  0.38535  0.12930  0.77253  1.0000
  C   C672      1.0  0.39797  0.12139  0.79235  1.0000
  H   H1172     1.0  0.37347  0.11623  0.85806  1.0000
  H   H1173     1.0  0.35126  0.13019  0.82340  1.0000
  H   H1174     1.0  0.38878  0.13290  0.74882  1.0000
  H   H1175     1.0  0.41103  0.11901  0.78353  1.0000
  H   H1176     1.0  0.40482  0.21999  0.71576  1.0000
  H   H1177     1.0  0.30266  0.24218  0.66931  1.0000
  H   H1178     1.0  0.35821  0.23595  0.84361  1.0000
  H   H1179     1.0  0.43110  0.06591  0.53902  1.0000
  H   H1180     1.0  0.46513  0.02264  0.88965  1.0000
  C   C673      1.0  0.35100  0.27274  0.67021  1.0000
  C   C674      1.0  0.33789  0.27042  0.69266  1.0000
  C   C675      1.0  0.33254  0.25346  0.70091  1.0000
  C   C676      1.0  0.34001  0.23861  0.68656  1.0000
  C   C677      1.0  0.35310  0.24090  0.66406  1.0000
  C   C678      1.0  0.35862  0.25787  0.65612  1.0000
  H   H1181     1.0  0.33202  0.28170  0.70387  1.0000
  H   H1182     1.0  0.32244  0.25185  0.71839  1.0000
  H   H1183     1.0  0.35898  0.22964  0.65279  1.0000
  H   H1184     1.0  0.36884  0.25952  0.63886  1.0000
  H   H1185     1.0  0.27987  0.18781  0.67754  1.0000
  C   C679      1.0  0.49358  0.09606  0.95332  1.0000
  C   C680      1.0  0.49291  0.08036  0.93686  1.0000
  H   H1186     1.0  0.31136  0.13370  0.60440  1.0000
  H   H1187     1.0  0.48164  0.10222  0.96150  1.0000
  C   C681      1.0  0.41748  0.02558  0.56328  1.0000
  C   C682      1.0  0.37409  0.21269  0.80093  1.0000
  H   H1188     1.0  0.25885  0.14302  0.96133  1.0000
  C   C683      1.0  0.44379  0.04222  0.52369  1.0000
  H   H1189     1.0  0.28887  0.24456  0.58077  1.0000
  H   H1190     1.0  0.30268  0.21095  0.65687  1.0000
  H   H1191     1.0  0.26401  0.22147  0.64873  1.0000
  H   H1192     1.0  0.34222  0.23030  0.57164  1.0000
  C   C684      1.0  0.27261  0.30043  0.57988  1.0000
  H   H1193     1.0  0.44062  0.05336  0.56978  1.0000
  N   N37       1.0  0.41492  0.04485  0.55615  1.0000
  C   C685      1.0  0.47952  0.12568  0.83210  1.0000
  C   C686      1.0  0.40804  0.05441  0.58462  1.0000
  C   C687      1.0  0.31403  0.23089  0.61176  1.0000
  C   C688      1.0  0.43257  0.05237  0.54824  1.0000
  H   H1194     1.0  0.27421  0.23168  0.53419  1.0000
  H   H1195     1.0  0.31413  0.20419  0.59227  1.0000
  H   H1196     1.0  0.29580  0.10466  0.60132  1.0000
  H   H1197     1.0  0.45357  0.10131  0.82260  1.0000
  H   H1198     1.0  0.45198  0.03885  0.90985  1.0000
  C   C689      1.0  0.38444  0.04057  0.53147  1.0000
  H   H1199     1.0  0.26517  0.21337  0.59625  1.0000
  H   H1200     1.0  0.36040  0.03960  0.50488  1.0000
  H   H1201     1.0  0.39775  0.20044  0.75931  1.0000
  H   H1202     1.0  0.30011  0.29127  0.65301  1.0000
  H   H1203     1.0  0.31630  0.10141  0.53767  1.0000
  H   H1204     1.0  0.42549  0.02806  0.88313  1.0000
  C   C690      1.0  0.31024  0.10549  0.60147  1.0000
  C   C691      1.0  0.32015  0.11828  0.49839  1.0000
  H   H1205     1.0  0.34020  0.20828  0.55797  1.0000
  C   C692      1.0  0.31803  0.21756  0.58557  1.0000
  C   C693      1.0  0.30068  0.26426  0.63766  1.0000
  C   C694      1.0  0.31643  0.12335  0.58842  1.0000
  C   C695      1.0  0.29463  0.27852  0.66035  1.0000
  C   C696      1.0  0.31614  0.10280  0.63526  1.0000
  H   H1206     1.0  0.31052  0.11317  0.65054  1.0000
  C   C697      1.0  0.48162  0.13458  0.77506  1.0000
  N   N38       1.0  0.31140  0.12756  0.55503  1.0000
  S   S165      1.0  0.38405  0.09446  0.50434  1.0000
  C   C698      1.0  0.48811  0.12172  0.80005  1.0000
  H   H1207     1.0  0.33060  0.10297  0.63679  1.0000
  H   H1208     1.0  0.28529  0.12927  0.57477  1.0000
  H   H1209     1.0  0.28827  0.13545  0.50376  1.0000
  H   H1210     1.0  0.31780  0.24367  0.60161  1.0000
  H   H1211     1.0  0.32328  0.22827  0.63129  1.0000
  H   H1212     1.0  0.44116  0.03170  0.97369  1.0000
  C   C699      1.0  0.47800  0.00875  0.94791  1.0000
  H   H1213     1.0  0.43045  0.02319  0.57431  1.0000
  C   C700      1.0  0.26542  0.17290  0.57866  1.0000
  C   C701      1.0  0.28222  0.13674  0.52716  1.0000
  H   H1214     1.0  0.40245  0.06162  0.52160  1.0000
  H   H1215     1.0  0.25849  0.21476  0.54075  1.0000
  C   C702      1.0  0.31635  0.14625  0.54870  1.0000
  C   C703      1.0  0.40319  0.04758  0.52824  1.0000
  H   H1216     1.0  0.26867  0.18170  0.55974  1.0000
  H   H1217     1.0  0.46911  0.05114  0.53987  1.0000
  H   H1218     1.0  0.48480  0.08939  0.82916  1.0000
  H   H1219     1.0  0.27723  0.22097  0.68336  1.0000
  H   H1220     1.0  0.34421  0.14182  0.53720  1.0000
  H   H1221     1.0  0.29150  0.20346  0.62412  1.0000
  H   H1222     1.0  0.44204  0.03490  0.85587  1.0000
  H   H1223     1.0  0.31516  0.26464  0.63673  1.0000
  H   H1224     1.0  0.36901  0.22749  0.87796  1.0000
  H   H1225     1.0  0.41726  0.05251  0.60446  1.0000
  H   H1226     1.0  0.27657  0.29376  0.60188  1.0000
  N   N39       1.0  0.48298  0.11269  0.85807  1.0000
  C   C704      1.0  0.47734  0.09454  0.84945  1.0000
  H   H1227     1.0  0.48415  0.03330  0.92259  1.0000
  C   C705      1.0  0.47225  0.11837  0.88614  1.0000
  C   C706      1.0  0.45773  0.09241  0.84178  1.0000
  C   C707      1.0  0.47822  0.13522  0.90295  1.0000
  N   N40       1.0  0.29558  0.23158  0.62425  1.0000
  H   H1228     1.0  0.36301  0.07668  0.97805  1.0000
  C   C708      1.0  0.45399  0.07376  0.83153  1.0000
  C   C709      1.0  0.46585  0.14000  0.92983  1.0000
  H   H1229     1.0  0.48052  0.08534  0.86889  1.0000
  C   C710      1.0  0.40443  0.01692  0.58631  1.0000
  H   H1230     1.0  0.35017  0.33167  0.92678  1.0000
  H   H1231     1.0  0.50244  0.12323  0.80166  1.0000
  H   H1232     1.0  0.47200  0.10775  0.90401  1.0000
  H   H1233     1.0  0.45839  0.12070  0.87943  1.0000
  H   H1234     1.0  0.44951  0.09507  0.86268  1.0000
  H   H1235     1.0  0.27140  0.24353  0.60775  1.0000
  C   C711      1.0  0.37266  0.04714  0.50502  1.0000
  H   H1236     1.0  0.40016  0.12903  0.50737  1.0000
  H   H1237     1.0  0.28855  0.11161  0.54843  1.0000
  C   C712      1.0  0.33948  0.16929  0.54210  1.0000
  H   H1238     1.0  0.49143  0.13348  0.91310  1.0000
  H   H1239     1.0  0.45781  0.06432  0.85020  1.0000
  H   H1240     1.0  0.43979  0.07247  0.82710  1.0000
  H   H1241     1.0  0.46120  0.07055  0.80965  1.0000
  H   H1242     1.0  0.47049  0.15192  0.94168  1.0000
  H   H1243     1.0  0.28465  0.21039  0.57367  1.0000
  H   H1244     1.0  0.46539  0.12927  0.94738  1.0000
  H   H1245     1.0  0.46523  0.12747  0.82848  1.0000
  H   H1246     1.0  0.50343  0.10883  0.89240  1.0000
  H   H1247     1.0  0.48458  0.14822  0.78175  1.0000
  H   H1248     1.0  0.33082  0.12333  0.59118  1.0000
  S   S166      1.0  0.32655  0.32711  0.70758  1.0000
  S   S167      1.0  0.32825  0.33108  0.63046  1.0000
  H   H1249     1.0  0.36434  0.22250  0.79227  1.0000
  C   C713      1.0  0.37850  0.21260  0.72973  1.0000
  H   H1250     1.0  0.44676  0.02864  0.53132  1.0000
  H   H1251     1.0  0.27829  0.31370  0.57988  1.0000
  H   H1252     1.0  0.38173  0.23702  0.84684  1.0000
  C   C714      1.0  0.33594  0.15049  0.55199  1.0000
  H   H1253     1.0  0.31575  0.09453  0.58758  1.0000
  H   H1254     1.0  0.37816  0.04462  0.55370  1.0000
  H   H1255     1.0  0.36509  0.05620  0.95772  1.0000
  C   C715      1.0  0.40296  0.01723  0.96975  1.0000
  H   H1256     1.0  0.39630  0.09685  0.60772  1.0000
  H   H1257     1.0  0.34460  0.32713  0.83531  1.0000
  C   C716      1.0  0.43877  0.02499  0.87394  1.0000
  H   H1258     1.0  0.48510  0.10844  0.79172  1.0000
  C   C717      1.0  0.39254  0.21560  0.70485  1.0000
  H   H1259     1.0  0.31158  0.08998  0.64406  1.0000
  H   H1260     1.0  0.38607  0.07680  0.61934  1.0000
  H   H1261     1.0  0.40858  0.08080  0.62970  1.0000
  H   H1262     1.0  0.38697  0.21894  0.79721  1.0000
  H   H1263     1.0  0.38801  0.22588  0.68823  1.0000
  H   H1264     1.0  0.40664  0.02177  0.61042  1.0000
  H   H1265     1.0  0.41563  0.33403  0.92682  1.0000
  H   H1266     1.0  0.28110  0.24754  0.65746  1.0000
  N   N41       1.0  0.37287  0.19608  0.78210  1.0000
  C   C718      1.0  0.37934  0.18010  0.79960  1.0000
  C   C719      1.0  0.35433  0.19306  0.77179  1.0000
  C   C720      1.0  0.38398  0.19786  0.75295  1.0000
  C   C721      1.0  0.39914  0.17963  0.80705  1.0000
  C   C722      1.0  0.34052  0.19098  0.79806  1.0000
  C   C723      1.0  0.32293  0.18568  0.78480  1.0000
  C   C724      1.0  0.40335  0.16677  0.83350  1.0000
  H   H1267     1.0  0.37668  0.16814  0.78581  1.0000
  H   H1268     1.0  0.37205  0.17816  0.82175  1.0000
  H   H1269     1.0  0.34941  0.20414  0.75728  1.0000
  H   H1270     1.0  0.35386  0.18133  0.75649  1.0000
  H   H1271     1.0  0.38432  0.18533  0.73976  1.0000
  H   H1272     1.0  0.38342  0.20441  0.84742  1.0000
  H   H1273     1.0  0.36030  0.20343  0.84375  1.0000
  H   H1274     1.0  0.40656  0.17531  0.78597  1.0000
  H   H1275     1.0  0.40392  0.19268  0.81375  1.0000
  H   H1276     1.0  0.34434  0.18083  0.81535  1.0000
  H   H1277     1.0  0.33843  0.20366  0.81006  1.0000
  H   H1278     1.0  0.32388  0.17226  0.77510  1.0000
  H   H1279     1.0  0.31296  0.18567  0.80372  1.0000
  H   H1280     1.0  0.31860  0.19493  0.76617  1.0000
  H   H1281     1.0  0.39864  0.15356  0.82766  1.0000
  H   H1282     1.0  0.41768  0.16593  0.83703  1.0000
  H   H1283     1.0  0.39711  0.17108  0.85571  1.0000
  H   H1284     1.0  0.38173  0.33352  0.92642  1.0000
  C   C725      1.0  0.37186  0.21105  0.83699  1.0000
  H   H1285     1.0  0.36452  0.09819  0.56122  1.0000
  H   H1286     1.0  0.41644  0.08129  0.57293  1.0000
  H   H1287     1.0  0.39553  0.04895  0.59291  1.0000
  C   C726      1.0  0.40458  0.07433  0.58058  1.0000
  C   C727      1.0  0.37010  0.22902  0.85217  1.0000
  C   C728      1.0  0.29182  0.21452  0.64071  1.0000
  H   H1288     1.0  0.37600  0.22515  0.74191  1.0000
  H   H1289     1.0  0.41769  0.01794  0.54110  1.0000
  H   H1290     1.0  0.35348  0.17218  0.54586  1.0000
  H   H1291     1.0  0.25641  0.13294  0.54770  1.0000
  H   H1292     1.0  0.36652  0.20896  0.71715  1.0000
  C   C729      1.0  0.27484  0.21441  0.66067  1.0000
  H   H1293     1.0  0.38484  0.02610  0.53026  1.0000
  H   H1294     1.0  0.34512  0.21218  0.59850  1.0000
  H   H1295     1.0  0.46043  0.04020  0.95801  1.0000
  C   C730      1.0  0.45217  0.02546  0.90029  1.0000
  H   H1296     1.0  0.26396  0.18967  0.64642  1.0000
  H   H1297     1.0  0.48821  0.13171  0.75242  1.0000
  C   C731      1.0  0.39852  0.08260  0.61131  1.0000
  H   H1298     1.0  0.27797  0.29318  0.55948  1.0000
  H   H1299     1.0  0.39513  0.20342  0.69146  1.0000
  H   H1300     1.0  0.34005  0.14916  0.57672  1.0000
  H   H1301     1.0  0.33121  0.33031  0.97967  1.0000
  H   H1302     1.0  0.47844  0.14652  0.88668  1.0000
  H   H1303     1.0  0.30901  0.15504  0.56489  1.0000
  H   H1304     1.0  0.28242  0.15075  0.53370  1.0000
  H   H1305     1.0  0.33651  0.17125  0.51691  1.0000
  H   H1306     1.0  0.29556  0.26759  0.61413  1.0000
  C   C732      1.0  0.29468  0.24589  0.64853  1.0000
  H   H1307     1.0  0.31241  0.15050  0.52490  1.0000
  C   C733      1.0  0.29183  0.12555  0.55231  1.0000
  H   H1308     1.0  0.31114  0.22149  0.56383  1.0000
  C   C734      1.0  0.45546  0.02905  0.97177  1.0000
  H   H1309     1.0  0.29925  0.27557  0.68442  1.0000
  C   C735      1.0  0.32112  0.11489  0.53406  1.0000
  H   H1310     1.0  0.39068  0.01971  0.58021  1.0000
  H   H1311     1.0  0.48417  0.13880  0.83879  1.0000
  H   H1312     1.0  0.33146  0.17846  0.55634  1.0000
  H   H1313     1.0  0.46732  0.13335  0.77174  1.0000
  H   H1314     1.0  0.26196  0.11800  0.51633  1.0000
  H   H1315     1.0  0.33515  0.11417  0.54062  1.0000
  C   C736      1.0  0.35995  0.06256  0.97926  1.0000
  C   C737      1.0  0.26497  0.22613  0.55155  1.0000
  H   H1316     1.0  0.46873  0.04403  0.49973  1.0000
  C   C738      1.0  0.27468  0.22016  0.58093  1.0000
  H   H1317     1.0  0.28018  0.27977  0.66054  1.0000
  C   C739      1.0  0.25728  0.14965  0.62669  1.0000
  C   C740      1.0  0.28272  0.23584  0.59847  1.0000
  H   H1318     1.0  0.45926  0.06482  0.50998  1.0000
  H   H1319     1.0  0.36602  0.33404  0.87720  1.0000
  C   C741      1.0  0.48951  0.02493  0.94145  1.0000
  C   C742      1.0  0.44802  0.01166  0.92567  1.0000
  H   H1320     1.0  0.49063  0.03315  0.96260  1.0000
  C   C743      1.0  0.26308  0.13165  0.52467  1.0000
  C   C744      1.0  0.46127  0.05114  0.51810  1.0000
  H   H1321     1.0  0.43704  0.04155  0.50096  1.0000
  H   H1322     1.0  0.43873  0.01193  0.86276  1.0000
  H   H1323     1.0  0.34593  0.32631  0.52925  1.0000
  S   S168      1.0  0.28076  0.33367  0.67073  1.0000
  H   H1324     1.0  0.25629  0.14047  0.50781  1.0000
  H   H1325     1.0  0.36917  0.06108  0.50859  1.0000
  N   N42       1.0  0.45886  0.01201  0.95505  1.0000
  H   H1326     1.0  0.34558  0.06101  0.97998  1.0000
  H   H1327     1.0  0.25820  0.19621  0.68543  1.0000
  H   H1328     1.0  0.25406  0.14050  0.64513  1.0000
  H   H1329     1.0  0.25481  0.23606  0.55732  1.0000
  H   H1330     1.0  0.35296  0.40568  0.48669  1.0000
  S   S169      1.0  0.28385  0.35546  0.16882  1.0000
  Fe  Fe83      1.0  0.34797  0.34797  0.20141  1.0000
  S   S170      1.0  0.36820  0.36160  0.23275  1.0000
  Fe  Fe84      1.0  0.31603  0.65729  0.32143  1.0000
  Fe  Fe85      1.0  0.31185  0.34455  0.16876  1.0000
  S   S171      1.0  0.33546  0.36134  0.15959  1.0000
  H   H1331     1.0  0.50113  0.39247  0.36060  1.0000
  S   S172      1.0  0.33973  0.63961  0.31632  1.0000
  H   H1332     1.0  0.34179  0.65267  0.10259  1.0000
  C   C745      1.0  0.36810  0.64957  0.01364  1.0000
  H   H1333     1.0  0.33235  0.40864  0.46734  1.0000
  Fe  Fe86      1.0  0.34624  0.65477  0.27234  1.0000
  S   S173      1.0  0.35047  0.64080  0.22482  1.0000
  C   C746      1.0  0.27549  0.38465  0.07471  1.0000
  Fe  Fe87      1.0  0.44195  0.41369  0.41884  1.0000
  S   S174      1.0  0.42026  0.42649  0.39065  1.0000
  S   S175      1.0  0.46982  0.41581  0.39934  1.0000
  H   H1334     1.0  0.32108  0.63479  0.46000  1.0000
  S   S176      1.0  0.39347  0.41484  0.44600  1.0000
  H   H1335     1.0  0.30677  0.58963  0.32439  1.0000
  Fe  Fe88      1.0  0.40418  0.40267  0.40148  1.0000
  S   S177      1.0  0.38365  0.38702  0.37358  1.0000
  Fe  Fe89      1.0  0.41131  0.43756  0.43706  1.0000
  S   S178      1.0  0.40212  0.46615  0.44026  1.0000
  S   S179      1.0  0.42653  0.38914  0.42656  1.0000
  S   S180      1.0  0.43361  0.42594  0.46430  1.0000
  Fe  Fe90      1.0  0.41174  0.59069  0.08923  1.0000
  S   S181      1.0  0.41879  0.60746  0.04740  1.0000
  S   S182      1.0  0.40915  0.60370  0.13796  1.0000
  Fe  Fe91      1.0  0.41373  0.55684  0.04893  1.0000
  H   H1336     1.0  0.32969  0.61895  0.00384  1.0000
  S   S183      1.0  0.41131  0.52705  0.04860  1.0000
  Fe  Fe92      1.0  0.43892  0.58655  0.03601  1.0000
  S   S184      1.0  0.46560  0.59075  0.01329  1.0000
  H   H1337     1.0  0.33865  0.57723  0.46784  1.0000
  H   H1338     1.0  0.37044  0.37832  0.47659  1.0000
  S   S185      1.0  0.43324  0.57070  0.07911  1.0000
  S   S186      1.0  0.39184  0.57533  0.06279  1.0000
  C   C747      1.0  0.25598  0.64531  0.35664  1.0000
  H   H1339     1.0  0.32548  0.37737  0.03216  1.0000
  C   C748      1.0  0.40865  0.49502  0.02017  1.0000
  H   H1340     1.0  0.30948  0.58944  0.38149  1.0000
  C   C749      1.0  0.31299  0.60083  0.33611  1.0000
  C   C750      1.0  0.35421  0.34529  0.47574  1.0000
  C   C751      1.0  0.43246  0.37148  0.01665  1.0000
  H   H1341     1.0  0.40698  0.49004  0.04371  1.0000
  H   H1342     1.0  0.26233  0.63033  0.48680  1.0000
  H   H1343     1.0  0.29710  0.36004  0.09761  1.0000
  C   C752      1.0  0.36715  0.63025  0.20174  1.0000
  C   C753      1.0  0.38498  0.63162  0.20814  1.0000
  C   C754      1.0  0.39755  0.62346  0.18842  1.0000
  C   C755      1.0  0.39259  0.61373  0.16205  1.0000
  C   C756      1.0  0.37476  0.61219  0.15595  1.0000
  C   C757      1.0  0.36220  0.62049  0.17541  1.0000
  H   H1344     1.0  0.38910  0.63905  0.22816  1.0000
  H   H1345     1.0  0.41126  0.62467  0.19368  1.0000
  H   H1346     1.0  0.37063  0.60429  0.13662  1.0000
  H   H1347     1.0  0.34849  0.61914  0.17029  1.0000
  C   C758      1.0  0.37399  0.63840  0.40717  1.0000
  C   C759      1.0  0.36611  0.62266  0.39951  1.0000
  C   C760      1.0  0.36711  0.60833  0.42026  1.0000
  C   C761      1.0  0.37626  0.60948  0.44858  1.0000
  C   C762      1.0  0.38430  0.62516  0.45612  1.0000
  C   C763      1.0  0.38318  0.63953  0.43545  1.0000
  H   H1348     1.0  0.35941  0.62152  0.37746  1.0000
  H   H1349     1.0  0.36103  0.59618  0.41410  1.0000
  H   H1350     1.0  0.37237  0.54826  0.00811  1.0000
  H   H1351     1.0  0.38941  0.65164  0.44149  1.0000
  H   H1352     1.0  0.29296  0.38239  0.01835  1.0000
  H   H1353     1.0  0.27146  0.37515  0.09315  1.0000
  H   H1354     1.0  0.39042  0.55197  0.43427  1.0000
  C   C764      1.0  0.36327  0.35949  0.06352  1.0000
  C   C765      1.0  0.35703  0.37571  0.07381  1.0000
  C   C766      1.0  0.36051  0.39088  0.05627  1.0000
  C   C767      1.0  0.37020  0.38998  0.02832  1.0000
  C   C768      1.0  0.37684  0.37383  0.01844  1.0000
  C   C769      1.0  0.37336  0.35865  0.03599  1.0000
  H   H1355     1.0  0.34938  0.37655  0.09510  1.0000
  H   H1356     1.0  0.35554  0.40339  0.06427  1.0000
  H   H1357     1.0  0.26606  0.36988  0.03374  1.0000
  H   H1358     1.0  0.37841  0.34615  0.02813  1.0000
  C   C770      1.0  0.37172  0.36931  0.27183  1.0000
  C   C771      1.0  0.35951  0.36728  0.29603  1.0000
  C   C772      1.0  0.36333  0.37300  0.32670  1.0000
  C   C773      1.0  0.37936  0.38086  0.33385  1.0000
  C   C774      1.0  0.39147  0.38306  0.30956  1.0000
  C   C775      1.0  0.38765  0.37737  0.27889  1.0000
  H   H1359     1.0  0.34711  0.36138  0.29114  1.0000
  H   H1360     1.0  0.35368  0.37153  0.34499  1.0000
  H   H1361     1.0  0.40383  0.38909  0.31441  1.0000
  H   H1362     1.0  0.39721  0.37913  0.26050  1.0000
  C   C776      1.0  0.26610  0.34913  0.14489  1.0000
  H   H1363     1.0  0.39806  0.37125  0.45843  1.0000
  H   H1364     1.0  0.33984  0.35506  0.42213  1.0000
  C   C777      1.0  0.30176  0.36503  0.07458  1.0000
  C   C778      1.0  0.48972  0.41427  0.42053  1.0000
  C   C779      1.0  0.49155  0.40370  0.44715  1.0000
  C   C780      1.0  0.32798  0.66645  0.43517  1.0000
  H   H1365     1.0  0.48033  0.39695  0.45639  1.0000
  N   N43       1.0  0.31157  0.61879  0.42188  1.0000
  C   C781      1.0  0.48599  0.58934  0.03281  1.0000
  C   C782      1.0  0.48719  0.59040  0.06537  1.0000
  C   C783      1.0  0.29221  0.62132  0.42674  1.0000
  H   H1366     1.0  0.47543  0.59133  0.07939  1.0000
  C   C784      1.0  0.30649  0.60210  0.36989  1.0000
  N   N44       1.0  0.29504  0.38343  0.06903  1.0000
  H   H1367     1.0  0.48994  0.47442  0.00955  1.0000
  C   C785      1.0  0.31496  0.61766  0.38706  1.0000
  C   C786      1.0  0.43338  0.62388  0.46010  1.0000
  H   H1368     1.0  0.34991  0.62469  0.10321  1.0000
  H   H1369     1.0  0.35096  0.65637  0.05121  1.0000
  C   C787      1.0  0.29652  0.35119  0.05023  1.0000
  H   H1370     1.0  0.44556  0.62838  0.44866  1.0000
  H   H1371     1.0  0.41543  0.43793  0.09865  1.0000
  Fe  Fe93      1.0  0.34518  0.33849  0.13154  1.0000
  H   H1372     1.0  0.44179  0.37377  0.99714  1.0000
  C   C788      1.0  0.40816  0.48342  0.99465  1.0000
  N   N45       1.0  0.37534  0.64804  0.07305  1.0000
  H   H1373     1.0  0.31593  0.60902  0.48672  1.0000
  H   H1374     1.0  0.43749  0.36040  0.03102  1.0000
  H   H1375     1.0  0.39367  0.42985  0.10403  1.0000
  H   H1376     1.0  0.29480  0.63875  0.99485  1.0000
  C   C789      1.0  0.35189  0.60300  0.07207  1.0000
  S   S187      1.0  0.42043  0.57169  0.00556  1.0000
  H   H1377     1.0  0.48839  0.64496  0.06057  1.0000
  H   H1378     1.0  0.39067  0.38156  0.16819  1.0000
  H   H1379     1.0  0.33626  0.38135  0.43908  1.0000
  H   H1380     1.0  0.33998  0.34841  0.47555  1.0000
  C   C790      1.0  0.31917  0.39030  0.02810  1.0000
  C   C791      1.0  0.36521  0.65695  0.04708  1.0000
  N   N46       1.0  0.41997  0.59206  0.39259  1.0000
  C   C792      1.0  0.41251  0.57796  0.41331  1.0000
  C   C793      1.0  0.42273  0.60857  0.41123  1.0000
  C   C794      1.0  0.40669  0.59607  0.36740  1.0000
  C   C795      1.0  0.43668  0.58621  0.37682  1.0000
  C   C796      1.0  0.45170  0.58021  0.39863  1.0000
  C   C797      1.0  0.40838  0.56035  0.39745  1.0000
  C   C798      1.0  0.41050  0.61206  0.34597  1.0000
  C   C799      1.0  0.42777  0.60651  0.44625  1.0000
  H   H1381     1.0  0.29319  0.63477  0.47240  1.0000
  C   C800      1.0  0.46694  0.57250  0.37982  1.0000
  C   C801      1.0  0.40217  0.54698  0.42163  1.0000
  C   C802      1.0  0.39559  0.61536  0.32294  1.0000
  H   H1382     1.0  0.40022  0.58282  0.42437  1.0000
  H   H1383     1.0  0.42129  0.57480  0.43304  1.0000
  H   H1384     1.0  0.43265  0.61690  0.39957  1.0000
  H   H1385     1.0  0.41053  0.61667  0.41169  1.0000
  H   H1386     1.0  0.39360  0.59831  0.37819  1.0000
  H   H1387     1.0  0.40528  0.58474  0.35147  1.0000
  H   H1388     1.0  0.43412  0.57558  0.35987  1.0000
  H   H1389     1.0  0.44207  0.59699  0.36239  1.0000
  H   H1390     1.0  0.44750  0.57004  0.41548  1.0000
  H   H1391     1.0  0.45677  0.59156  0.41160  1.0000
  H   H1392     1.0  0.39781  0.56200  0.38002  1.0000
  H   H1393     1.0  0.42010  0.55472  0.38574  1.0000
  H   H1394     1.0  0.42255  0.60982  0.33202  1.0000
  H   H1395     1.0  0.41201  0.62421  0.35967  1.0000
  H   H1396     1.0  0.41630  0.60200  0.45991  1.0000
  H   H1397     1.0  0.43849  0.59693  0.44999  1.0000
  H   H1398     1.0  0.37287  0.38076  0.14055  1.0000
  H   H1399     1.0  0.36314  0.63606  0.01222  1.0000
  H   H1400     1.0  0.42369  0.35484  0.47728  1.0000
  H   H1401     1.0  0.47768  0.56870  0.39596  1.0000
  H   H1402     1.0  0.46282  0.56067  0.36702  1.0000
  H   H1403     1.0  0.36886  0.45655  0.46745  1.0000
  H   H1404     1.0  0.40695  0.45084  0.04736  1.0000
  H   H1405     1.0  0.39742  0.52486  0.48649  1.0000
  H   H1406     1.0  0.39878  0.53462  0.40980  1.0000
  H   H1407     1.0  0.38328  0.61849  0.33567  1.0000
  H   H1408     1.0  0.39871  0.62666  0.30763  1.0000
  H   H1409     1.0  0.39362  0.60377  0.30790  1.0000
  H   H1410     1.0  0.34405  0.66067  0.99433  1.0000
  H   H1411     1.0  0.46261  0.47366  0.03145  1.0000
  H   H1412     1.0  0.28541  0.39209  0.13210  1.0000
  S   S188      1.0  0.37303  0.65679  0.38190  1.0000
  H   H1413     1.0  0.33618  0.34619  0.00921  1.0000
  H   H1414     1.0  0.39127  0.62624  0.47795  1.0000
  H   H1415     1.0  0.32737  0.59880  0.33535  1.0000
  H   H1416     1.0  0.41813  0.34777  0.43852  1.0000
  C   C803      1.0  0.40717  0.48210  0.46897  1.0000
  C   C804      1.0  0.40395  0.43262  0.08642  1.0000
  C   C805      1.0  0.37272  0.62855  0.07323  1.0000
  H   H1417     1.0  0.33764  0.60971  0.47070  1.0000
  C   C806      1.0  0.45767  0.46939  0.00832  1.0000
  H   H1418     1.0  0.33585  0.63215  0.42860  1.0000
  C   C807      1.0  0.30818  0.40517  0.14824  1.0000
  C   C808      1.0  0.27561  0.66538  0.38124  1.0000
  H   H1419     1.0  0.26501  0.39320  0.02918  1.0000
  H   H1420     1.0  0.40383  0.65178  0.11633  1.0000
  H   H1421     1.0  0.31826  0.39411  0.09018  1.0000
  H   H1422     1.0  0.46189  0.44491  0.05790  1.0000
  H   H1423     1.0  0.38447  0.37303  0.99713  1.0000
  C   C809      1.0  0.40726  0.64581  0.09349  1.0000
  Fe  Fe94      1.0  0.39991  0.59115  0.02061  1.0000
  H   H1424     1.0  0.37790  0.62260  0.05129  1.0000
  H   H1425     1.0  0.40727  0.63151  0.09648  1.0000
  H   H1426     1.0  0.35226  0.40919  0.44477  1.0000
  H   H1427     1.0  0.35202  0.34017  0.35794  1.0000
  H   H1428     1.0  0.29211  0.60393  0.36903  1.0000
  H   H1429     1.0  0.48809  0.54272  0.46830  1.0000
  H   H1430     1.0  0.33831  0.59900  0.07719  1.0000
  C   C810      1.0  0.31795  0.60179  0.43658  1.0000
  S   S189      1.0  0.28867  0.64656  0.33033  1.0000
  C   C811      1.0  0.26664  0.62896  0.46208  1.0000
  H   H1431     1.0  0.38056  0.62223  0.09203  1.0000
  H   H1432     1.0  0.34923  0.65537  0.15872  1.0000
  H   H1433     1.0  0.30952  0.61290  0.32288  1.0000
  H   H1434     1.0  0.42694  0.66547  0.08403  1.0000
  C   C812      1.0  0.34448  0.38319  0.46002  1.0000
  H   H1435     1.0  0.38214  0.33854  0.31044  1.0000
  N   N47       1.0  0.36340  0.35528  0.45013  1.0000
  C   C813      1.0  0.34803  0.66716  0.14365  1.0000
  H   H1436     1.0  0.48459  0.38270  0.31418  1.0000
  H   H1437     1.0  0.26416  0.64160  0.44993  1.0000
  C   C814      1.0  0.45370  0.44082  0.03796  1.0000
  H   H1438     1.0  0.45463  0.42638  0.03583  1.0000
  H   H1439     1.0  0.28234  0.34870  0.05198  1.0000
  H   H1440     1.0  0.27179  0.39775  0.08418  1.0000
  C   C815      1.0  0.35399  0.35198  0.41976  1.0000
  C   C816      1.0  0.31632  0.62309  0.01115  1.0000
  H   H1441     1.0  0.31729  0.63081  0.03296  1.0000
  H   H1442     1.0  0.42297  0.63399  0.45718  1.0000
  H   H1443     1.0  0.38655  0.35123  0.42152  1.0000
  C   C817      1.0  0.30381  0.39524  0.09221  1.0000
  S   S190      1.0  0.37297  0.40925  0.00603  1.0000
  C   C818      1.0  0.36285  0.37475  0.45568  1.0000
  H   H1444     1.0  0.32925  0.61710  0.38241  1.0000
  Fe  Fe95      1.0  0.41639  0.40247  0.47017  1.0000
  C   C819      1.0  0.37057  0.65587  0.10454  1.0000
  C   C820      1.0  0.38575  0.37499  0.14693  1.0000
  H   H1445     1.0  0.30522  0.40204  0.17311  1.0000
  H   H1446     1.0  0.30038  0.40917  0.08711  1.0000
  H   H1447     1.0  0.32257  0.40487  0.14506  1.0000
  H   H1448     1.0  0.31009  0.62952  0.37478  1.0000
  H   H1449     1.0  0.30256  0.65558  0.42993  1.0000
  H   H1450     1.0  0.41944  0.42027  0.05083  1.0000
  H   H1451     1.0  0.30484  0.37875  0.13415  1.0000
  H   H1452     1.0  0.32593  0.40029  0.04204  1.0000
  H   H1453     1.0  0.25872  0.61870  0.45088  1.0000
  H   H1454     1.0  0.39909  0.64436  0.04576  1.0000
  C   C821      1.0  0.48740  0.39672  0.31794  1.0000
  H   H1455     1.0  0.28725  0.63239  0.41212  1.0000
  S   S191      1.0  0.37699  0.59108  0.47383  1.0000
  C   C822      1.0  0.36614  0.44922  0.48937  1.0000
  C   C823      1.0  0.32175  0.63403  0.43415  1.0000
  H   H1456     1.0  0.37378  0.64644  0.12372  1.0000
  C   C824      1.0  0.29963  0.39172  0.12720  1.0000
  H   H1457     1.0  0.31694  0.57645  0.48481  1.0000
  H   H1458     1.0  0.34450  0.62947  0.06295  1.0000
  H   H1459     1.0  0.39201  0.50231  0.44608  1.0000
  H   H1460     1.0  0.41213  0.34606  0.32033  1.0000
  H   H1461     1.0  0.41968  0.36800  0.00646  1.0000
  H   H1462     1.0  0.44337  0.47231  0.00850  1.0000
  H   H1463     1.0  0.36081  0.59517  0.08713  1.0000
  H   H1464     1.0  0.42957  0.41547  0.11924  1.0000
  H   H1465     1.0  0.35480  0.60008  0.04717  1.0000
  H   H1466     1.0  0.43482  0.64626  0.10441  1.0000
  H   H1467     1.0  0.32755  0.66654  0.46115  1.0000
  C   C825      1.0  0.41102  0.51303  0.01551  1.0000
  C   C826      1.0  0.29950  0.39008  0.03668  1.0000
  C   C827      1.0  0.26227  0.67000  0.40269  1.0000
  C   C828      1.0  0.41372  0.34798  0.46331  1.0000
  H   H1468     1.0  0.36943  0.38159  0.43591  1.0000
  H   H1469     1.0  0.48888  0.40340  0.29499  1.0000
  H   H1470     1.0  0.47391  0.44531  0.00401  1.0000
  H   H1471     1.0  0.46311  0.53206  0.04022  1.0000
  C   C829      1.0  0.49819  0.63567  0.05072  1.0000
  H   H1472     1.0  0.30304  0.41850  0.14301  1.0000
  C   C830      1.0  0.40313  0.51193  0.48893  1.0000
  N   N48       1.0  0.41503  0.40029  0.08612  1.0000
  C   C831      1.0  0.41738  0.38534  0.06350  1.0000
  C   C832      1.0  0.40087  0.39616  0.10987  1.0000
  C   C833      1.0  0.40006  0.49909  0.46607  1.0000
  C   C834      1.0  0.43185  0.40480  0.10208  1.0000
  C   C835      1.0  0.44105  0.38993  0.12055  1.0000
  C   C836      1.0  0.43065  0.38801  0.03639  1.0000
  Fe  Fe96      1.0  0.35393  0.66075  0.34159  1.0000
  C   C837      1.0  0.39872  0.37674  0.11982  1.0000
  C   C838      1.0  0.35376  0.62248  0.07846  1.0000
  C   C839      1.0  0.45883  0.39573  0.13239  1.0000
  H   H1473     1.0  0.40606  0.46968  0.99864  1.0000
  H   H1474     1.0  0.39772  0.41266  0.05281  1.0000
  H   H1475     1.0  0.40463  0.38239  0.05267  1.0000
  H   H1476     1.0  0.42134  0.37313  0.07572  1.0000
  H   H1477     1.0  0.40258  0.40404  0.13145  1.0000
  C   C840      1.0  0.28605  0.62412  0.46086  1.0000
  H   H1478     1.0  0.37862  0.66758  0.10919  1.0000
  H   H1479     1.0  0.31625  0.36482  0.07653  1.0000
  H   H1480     1.0  0.44131  0.41019  0.08486  1.0000
  C   C841      1.0  0.31608  0.65239  0.42226  1.0000
  H   H1481     1.0  0.44333  0.37820  0.10597  1.0000
  H   H1482     1.0  0.43316  0.38644  0.14141  1.0000
  H   H1483     1.0  0.49155  0.62721  0.03357  1.0000
  H   H1484     1.0  0.44376  0.39117  0.04542  1.0000
  H   H1485     1.0  0.38780  0.40006  0.10058  1.0000
  H   H1486     1.0  0.29436  0.40368  0.03373  1.0000
  H   H1487     1.0  0.39356  0.36910  0.09997  1.0000
  H   H1488     1.0  0.41118  0.37056  0.12707  1.0000
  H   H1489     1.0  0.38204  0.64943  0.00670  1.0000
  H   H1490     1.0  0.47230  0.53217  0.00135  1.0000
  C   C842      1.0  0.46357  0.50666  0.01779  1.0000
  H   H1491     1.0  0.46503  0.38498  0.14609  1.0000
  H   H1492     1.0  0.46757  0.39898  0.11244  1.0000
  H   H1493     1.0  0.45736  0.40731  0.14780  1.0000
  H   H1494     1.0  0.38512  0.44255  0.05225  1.0000
  H   H1495     1.0  0.43030  0.64513  0.06320  1.0000
  H   H1496     1.0  0.38388  0.36096  0.15257  1.0000
  C   C843      1.0  0.40911  0.41607  0.06742  1.0000
  C   C844      1.0  0.46004  0.44922  0.00756  1.0000
  H   H1497     1.0  0.30848  0.61132  0.01630  1.0000
  H   H1498     1.0  0.43990  0.44460  0.04260  1.0000
  C   C845      1.0  0.42595  0.65104  0.08565  1.0000
  H   H1499     1.0  0.47200  0.58225  0.36284  1.0000
  C   C846      1.0  0.39690  0.44702  0.06480  1.0000
  C   C847      1.0  0.26334  0.38228  0.04608  1.0000
  H   H1500     1.0  0.29987  0.35524  0.02608  1.0000
  C   C848      1.0  0.39618  0.35759  0.46637  1.0000
  C   C849      1.0  0.40936  0.33787  0.29960  1.0000
  C   C850      1.0  0.39447  0.65138  0.06703  1.0000
  H   H1501     1.0  0.42626  0.39860  0.02034  1.0000
  H   H1502     1.0  0.43594  0.62214  0.48546  1.0000
  H   H1503     1.0  0.39264  0.35792  0.49139  1.0000
  H   H1504     1.0  0.41261  0.54404  0.43891  1.0000
  C   C851      1.0  0.34567  0.40288  0.46501  1.0000
  H   H1505     1.0  0.35900  0.36086  0.40107  1.0000
  H   H1506     1.0  0.30748  0.59187  0.43612  1.0000
  C   C852      1.0  0.27251  0.65299  0.35806  1.0000
  H   H1507     1.0  0.39326  0.45873  0.07873  1.0000
  H   H1508     1.0  0.32891  0.59603  0.42260  1.0000
  H   H1509     1.0  0.28505  0.60976  0.41827  1.0000
  H   H1510     1.0  0.45332  0.50201  0.03422  1.0000
  C   C853      1.0  0.38207  0.34892  0.44610  1.0000
  C   C854      1.0  0.50146  0.58821  0.01498  1.0000
  H   H1511     1.0  0.31674  0.65332  0.39649  1.0000
  S   S192      1.0  0.35850  0.33993  0.08380  1.0000
  H   H1512     1.0  0.47609  0.40276  0.33042  1.0000
  C   C855      1.0  0.32516  0.60248  0.47044  1.0000
  H   H1513     1.0  0.34166  0.66414  0.42725  1.0000
  C   C856      1.0  0.46188  0.52657  0.01633  1.0000
  H   H1514     1.0  0.47650  0.50311  0.02768  1.0000
  H   H1515     1.0  0.44892  0.53059  0.00702  1.0000
  H   H1516     1.0  0.28788  0.61186  0.47446  1.0000
  H   H1517     1.0  0.33778  0.37759  0.48076  1.0000
  C   C857      1.0  0.32907  0.58416  0.48315  1.0000
  H   H1518     1.0  0.40870  0.34651  0.27868  1.0000
  H   H1519     1.0  0.36677  0.43506  0.48411  1.0000
  H   H1520     1.0  0.39654  0.66554  0.06237  1.0000
  C   C858      1.0  0.35149  0.66245  0.10945  1.0000
  H   H1521     1.0  0.50320  0.43128  0.38856  1.0000
  C   C859      1.0  0.50368  0.59099  0.07979  1.0000
  H   H1522     1.0  0.50338  0.62747  0.07016  1.0000
  C   C860      1.0  0.32194  0.39511  0.99375  1.0000
  H   H1523     1.0  0.43247  0.61591  0.72507  1.0000
  H   H1524     1.0  0.27111  0.41681  0.69794  1.0000
  Fe  Fe97      1.0  0.34057  0.35291  0.71064  1.0000
  S   S193      1.0  0.34228  0.36881  0.75658  1.0000
  Fe  Fe98      1.0  0.34210  0.35646  0.63836  1.0000
  S   S194      1.0  0.34632  0.37626  0.59881  1.0000
  S   S195      1.0  0.32268  0.36533  0.67485  1.0000
  C   C861      1.0  0.27778  0.39912  0.64130  1.0000
  S   S196      1.0  0.33901  0.63530  0.80509  1.0000
  S   S197      1.0  0.37607  0.64694  0.86689  1.0000
  H   H1525     1.0  0.41530  0.53303  0.98106  1.0000
  S   S198      1.0  0.28855  0.64166  0.82497  1.0000
  Fe  Fe99      1.0  0.34522  0.65319  0.76444  1.0000
  S   S199      1.0  0.35164  0.64787  0.71231  1.0000
  H   H1526     1.0  0.49427  0.39906  0.98942  1.0000
  Fe  Fe100     1.0  0.43243  0.41449  0.95017  1.0000
  S   S200      1.0  0.42695  0.42881  0.90531  1.0000
  S   S201      1.0  0.45912  0.40581  0.96868  1.0000
  Fe  Fe101     1.0  0.39355  0.41429  0.96857  1.0000
  S   S202      1.0  0.38557  0.42897  0.92492  1.0000
  C   C862      1.0  0.26468  0.33846  0.64197  1.0000
  Fe  Fe102     1.0  0.40403  0.41065  0.89945  1.0000
  S   S203      1.0  0.40032  0.39446  0.85435  1.0000
  Fe  Fe103     1.0  0.40892  0.44572  0.93479  1.0000
  S   S204      1.0  0.40958  0.47555  0.93113  1.0000
  S   S205      1.0  0.41083  0.39518  0.94311  1.0000
  H   H1527     1.0  0.44138  0.55761  0.67680  1.0000
  Fe  Fe104     1.0  0.40611  0.58675  0.58190  1.0000
  S   S206      1.0  0.41280  0.60416  0.54076  1.0000
  S   S207      1.0  0.40126  0.59536  0.63316  1.0000
  Fe  Fe105     1.0  0.41315  0.55290  0.54296  1.0000
  N   N49       1.0  0.26524  0.38934  0.69513  1.0000
  S   S208      1.0  0.41631  0.52310  0.54611  1.0000
  Fe  Fe106     1.0  0.43543  0.58547  0.53187  1.0000
  S   S209      1.0  0.46214  0.59449  0.51442  1.0000
  Fe  Fe107     1.0  0.39704  0.58549  0.51213  1.0000
  C   C863      1.0  0.26888  0.34641  0.61348  1.0000
  S   S210      1.0  0.42990  0.56925  0.57437  1.0000
  S   S211      1.0  0.38900  0.56899  0.55369  1.0000
  C   C864      1.0  0.41008  0.48969  0.96405  1.0000
  C   C865      1.0  0.37960  0.45379  0.51418  1.0000
  H   H1528     1.0  0.28629  0.40314  0.71747  1.0000
  C   C866      1.0  0.41315  0.50785  0.51533  1.0000
  N   N50       1.0  0.29571  0.63261  0.92893  1.0000
  C   C867      1.0  0.41265  0.50767  0.95937  1.0000
  H   H1529     1.0  0.26338  0.39808  0.76066  1.0000
  H   H1530     1.0  0.42818  0.48761  0.53836  1.0000
  H   H1531     1.0  0.49739  0.38386  0.87548  1.0000
  H   H1532     1.0  0.41441  0.51260  0.93587  1.0000
  C   C868      1.0  0.36546  0.63296  0.69094  1.0000
  C   C869      1.0  0.37716  0.62136  0.70558  1.0000
  C   C870      1.0  0.38789  0.61000  0.68752  1.0000
  C   C871      1.0  0.38709  0.60994  0.65454  1.0000
  C   C872      1.0  0.37542  0.62156  0.63990  1.0000
  C   C873      1.0  0.36476  0.63297  0.65795  1.0000
  H   H1533     1.0  0.37796  0.62114  0.73083  1.0000
  H   H1534     1.0  0.39683  0.60113  0.69924  1.0000
  H   H1535     1.0  0.37459  0.62175  0.61465  1.0000
  H   H1536     1.0  0.35580  0.64183  0.64623  1.0000
  C   C874      1.0  0.37590  0.63445  0.90187  1.0000
  C   C875      1.0  0.36045  0.62822  0.91503  1.0000
  C   C876      1.0  0.36103  0.61798  0.94249  1.0000
  C   C877      1.0  0.37699  0.61399  0.95713  1.0000
  C   C878      1.0  0.39242  0.62033  0.94416  1.0000
  C   C879      1.0  0.39185  0.63050  0.91663  1.0000
  H   H1537     1.0  0.34816  0.63125  0.90386  1.0000
  H   H1538     1.0  0.34911  0.61301  0.95242  1.0000
  H   H1539     1.0  0.47269  0.38805  0.84008  1.0000
  H   H1540     1.0  0.40385  0.63531  0.90660  1.0000
  C   C880      1.0  0.27111  0.65130  0.84688  1.0000
  C   C881      1.0  0.27903  0.35225  0.75395  1.0000
  H   H1541     1.0  0.28236  0.34923  0.60808  1.0000
  C   C882      1.0  0.36567  0.37921  0.57657  1.0000
  C   C883      1.0  0.38097  0.36961  0.58251  1.0000
  C   C884      1.0  0.39597  0.37224  0.56391  1.0000
  C   C885      1.0  0.39577  0.38429  0.53899  1.0000
  C   C886      1.0  0.38047  0.39381  0.53299  1.0000
  C   C887      1.0  0.36556  0.39143  0.55187  1.0000
  H   H1542     1.0  0.38126  0.36018  0.60143  1.0000
  H   H1543     1.0  0.40776  0.36480  0.56875  1.0000
  H   H1544     1.0  0.37113  0.37888  0.93403  1.0000
  H   H1545     1.0  0.35377  0.39888  0.54706  1.0000
  C   C888      1.0  0.35896  0.37645  0.78227  1.0000
  C   C889      1.0  0.37626  0.37034  0.78093  1.0000
  C   C890      1.0  0.38864  0.37606  0.80301  1.0000
  C   C891      1.0  0.38405  0.38807  0.82669  1.0000
  C   C892      1.0  0.36680  0.39432  0.82779  1.0000
  C   C893      1.0  0.35440  0.38851  0.80588  1.0000
  H   H1546     1.0  0.38007  0.36106  0.76309  1.0000
  H   H1547     1.0  0.40191  0.37113  0.80167  1.0000
  H   H1548     1.0  0.36304  0.40376  0.84532  1.0000
  H   H1549     1.0  0.34111  0.39341  0.80723  1.0000
  H   H1550     1.0  0.25404  0.62964  0.83914  1.0000
  H   H1551     1.0  0.35277  0.45282  0.49737  1.0000
  H   H1552     1.0  0.27032  0.64352  0.91856  1.0000
  C   C894      1.0  0.48046  0.42733  0.93304  1.0000
  C   C895      1.0  0.47942  0.41465  0.95659  1.0000
  H   H1553     1.0  0.44323  0.57114  0.93797  1.0000
  H   H1554     1.0  0.46873  0.43167  0.92125  1.0000
  H   H1555     1.0  0.42622  0.35249  0.90898  1.0000
  C   C896      1.0  0.48414  0.58217  0.56158  1.0000
  C   C897      1.0  0.48268  0.59077  0.53275  1.0000
  H   H1556     1.0  0.26403  0.61196  0.92850  1.0000
  H   H1557     1.0  0.47261  0.57709  0.57277  1.0000
  H   H1558     1.0  0.28536  0.62434  0.88444  1.0000
  H   H1559     1.0  0.39268  0.45037  0.50469  1.0000
  H   H1560     1.0  0.35611  0.54407  0.97888  1.0000
  C   C898      1.0  0.49793  0.49123  0.97220  1.0000
  H   H1561     1.0  0.49211  0.38527  0.81672  1.0000
  H   H1562     1.0  0.49737  0.44411  0.90626  1.0000
  H   H1563     1.0  0.43609  0.58392  0.90474  1.0000
  C   C899      1.0  0.30462  0.64904  0.91767  1.0000
  H   H1564     1.0  0.36283  0.36160  0.51512  1.0000
  H   H1565     1.0  0.48560  0.58667  0.65428  1.0000
  H   H1566     1.0  0.33366  0.40912  0.91892  1.0000
  H   H1567     1.0  0.32298  0.61169  0.90006  1.0000
  H   H1568     1.0  0.39857  0.34628  0.88265  1.0000
  C   C900      1.0  0.27751  0.38548  0.66826  1.0000
  H   H1569     1.0  0.43657  0.44064  0.53026  1.0000
  N   N51       1.0  0.36425  0.35452  0.91163  1.0000
  H   H1570     1.0  0.35386  0.40835  0.89729  1.0000
  H   H1571     1.0  0.35401  0.34158  0.55743  1.0000
  H   H1572     1.0  0.41482  0.55726  0.94265  1.0000
  H   H1573     1.0  0.26428  0.42772  0.78219  1.0000
  H   H1574     1.0  0.44519  0.47339  0.95148  1.0000
  C   C901      1.0  0.26273  0.40922  0.74402  1.0000
  C   C902      1.0  0.45716  0.47398  0.89271  1.0000
  H   H1575     1.0  0.37888  0.46811  0.51755  1.0000
  H   H1576     1.0  0.42338  0.46529  0.49717  1.0000
  H   H1577     1.0  0.44689  0.49990  0.97956  1.0000
  H   H1578     1.0  0.33698  0.35060  0.92348  1.0000
  H   H1579     1.0  0.31713  0.62844  0.87227  1.0000
  C   C903      1.0  0.29512  0.61986  0.90204  1.0000
  H   H1580     1.0  0.44307  0.47755  0.89389  1.0000
  H   H1581     1.0  0.50153  0.57365  0.59841  1.0000
  C   C904      1.0  0.36368  0.37426  0.91339  1.0000
  C   C905      1.0  0.26568  0.62116  0.94820  1.0000
  H   H1582     1.0  0.29059  0.60688  0.91027  1.0000
  C   C906      1.0  0.29947  0.66646  0.93420  1.0000
  H   H1583     1.0  0.40478  0.61737  0.95525  1.0000
  H   H1584     1.0  0.49699  0.60335  0.49563  1.0000
  S   S212      1.0  0.41561  0.43221  0.97979  1.0000
  C   C907      1.0  0.48842  0.60051  0.65966  1.0000
  S   S213      1.0  0.42009  0.56821  0.50003  1.0000
  C   C908      1.0  0.27123  0.42474  0.75994  1.0000
  H   H1585     1.0  0.33413  0.34815  0.87432  1.0000
  H   H1586     1.0  0.35443  0.36257  0.97223  1.0000
  N   N52       1.0  0.38719  0.44823  0.57263  1.0000
  C   C909      1.0  0.37601  0.44369  0.54502  1.0000
  C   C910      1.0  0.38351  0.43543  0.59873  1.0000
  C   C911      1.0  0.38292  0.46676  0.58218  1.0000
  C   C912      1.0  0.40633  0.44706  0.56452  1.0000
  C   C913      1.0  0.41297  0.42952  0.55053  1.0000
  C   C914      1.0  0.36644  0.55323  0.98605  1.0000
  C   C915      1.0  0.39129  0.47305  0.61305  1.0000
  C   C916      1.0  0.36476  0.43600  0.61255  1.0000
  C   C917      1.0  0.36282  0.42257  0.63887  1.0000
  C   C918      1.0  0.43276  0.42974  0.54598  1.0000
  C   C919      1.0  0.31030  0.60249  0.85908  1.0000
  C   C920      1.0  0.38648  0.49215  0.61936  1.0000
  H   H1587     1.0  0.36201  0.44607  0.55072  1.0000
  H   H1588     1.0  0.37713  0.42955  0.53985  1.0000
  H   H1589     1.0  0.38555  0.42179  0.59044  1.0000
  H   H1590     1.0  0.39296  0.43700  0.61819  1.0000
  H   H1591     1.0  0.36856  0.46888  0.58401  1.0000
  H   H1592     1.0  0.38731  0.47607  0.56374  1.0000
  H   H1593     1.0  0.40993  0.45767  0.54798  1.0000
  H   H1594     1.0  0.41432  0.44926  0.58571  1.0000
  H   H1595     1.0  0.40693  0.42700  0.52750  1.0000
  H   H1596     1.0  0.41011  0.41835  0.56621  1.0000
  H   H1597     1.0  0.29960  0.60621  0.84284  1.0000
  C   C921      1.0  0.29127  0.39400  0.61637  1.0000
  H   H1598     1.0  0.40572  0.47217  0.61181  1.0000
  H   H1599     1.0  0.38681  0.46521  0.63335  1.0000
  H   H1600     1.0  0.36145  0.44904  0.62225  1.0000
  H   H1601     1.0  0.35502  0.43278  0.59446  1.0000
  H   H1602     1.0  0.34927  0.42302  0.64819  1.0000
  H   H1603     1.0  0.36548  0.40915  0.63001  1.0000
  H   H1604     1.0  0.37192  0.42534  0.65830  1.0000
  H   H1605     1.0  0.43943  0.43116  0.56881  1.0000
  H   H1606     1.0  0.37360  0.34054  0.51233  1.0000
  C   C922      1.0  0.27710  0.63681  0.93835  1.0000
  H   H1607     1.0  0.46771  0.50661  0.96761  1.0000
  C   C923      1.0  0.49490  0.40886  0.97115  1.0000
  H   H1608     1.0  0.49403  0.49596  0.94876  1.0000
  H   H1609     1.0  0.39252  0.49638  0.64158  1.0000
  H   H1610     1.0  0.39140  0.50067  0.60018  1.0000
  H   H1611     1.0  0.37211  0.49390  0.62143  1.0000
  C   C924      1.0  0.30584  0.62391  0.95501  1.0000
  H   H1612     1.0  0.29168  0.34848  0.76482  1.0000
  H   H1613     1.0  0.36045  0.65492  0.96569  1.0000
  H   H1614     1.0  0.27055  0.43652  0.74467  1.0000
  C   C925      1.0  0.50059  0.58015  0.57594  1.0000
  H   H1615     1.0  0.30736  0.58967  0.86997  1.0000
  C   C926      1.0  0.33448  0.34420  0.98368  1.0000
  H   H1616     1.0  0.33484  0.58510  0.50686  1.0000
  H   H1617     1.0  0.31939  0.62102  0.94726  1.0000
  H   H1618     1.0  0.28675  0.37872  0.74701  1.0000
  H   H1619     1.0  0.30025  0.61094  0.96075  1.0000
  C   C927      1.0  0.25548  0.64206  0.85069  1.0000
  H   H1620     1.0  0.27484  0.37251  0.65799  1.0000
  H   H1621     1.0  0.26950  0.35542  0.77281  1.0000
  H   H1622     1.0  0.32248  0.60117  0.84514  1.0000
  Fe  Fe108     1.0  0.35354  0.65455  0.83464  1.0000
  H   H1623     1.0  0.33579  0.34776  0.53329  1.0000
  C   C928      1.0  0.43177  0.57770  0.92694  1.0000
  H   H1624     1.0  0.48253  0.40679  0.82220  1.0000
  H   H1625     1.0  0.28810  0.38118  0.60600  1.0000
  H   H1626     1.0  0.35553  0.60918  0.85216  1.0000
  H   H1627     1.0  0.41515  0.35510  0.94593  1.0000
  C   C929      1.0  0.31256  0.61642  0.88418  1.0000
  C   C930      1.0  0.34688  0.40303  0.91795  1.0000
  C   C931      1.0  0.46672  0.48087  0.92133  1.0000
  C   C932      1.0  0.46100  0.49834  0.98512  1.0000
  C   C933      1.0  0.34540  0.38321  0.91577  1.0000
  C   C934      1.0  0.26440  0.37335  0.71583  1.0000
  H   H1628     1.0  0.45855  0.45955  0.89122  1.0000
  H   H1629     1.0  0.30164  0.65147  0.89252  1.0000
  S   S214      1.0  0.41487  0.38713  0.51606  1.0000
  H   H1630     1.0  0.35396  0.40666  0.93953  1.0000
  C   C935      1.0  0.36312  0.34834  0.87818  1.0000
  H   H1631     1.0  0.41691  0.63287  0.71527  1.0000
  S   S215      1.0  0.36079  0.34539  0.67416  1.0000
  C   C936      1.0  0.28164  0.36802  0.73249  1.0000
  C   C937      1.0  0.48535  0.39400  0.83361  1.0000
  H   H1632     1.0  0.37322  0.35472  0.86338  1.0000
  H   H1633     1.0  0.41903  0.52158  0.87874  1.0000
  H   H1634     1.0  0.27649  0.64622  0.95793  1.0000
  H   H1635     1.0  0.48842  0.40504  0.87902  1.0000
  H   H1636     1.0  0.28125  0.41220  0.65011  1.0000
  H   H1637     1.0  0.37050  0.38003  0.89282  1.0000
  C   C938      1.0  0.42033  0.49089  0.51816  1.0000
  H   H1638     1.0  0.39804  0.36744  0.90079  1.0000
  H   H1639     1.0  0.48105  0.55951  0.49497  1.0000
  H   H1640     1.0  0.37296  0.59797  0.83202  1.0000
  H   H1641     1.0  0.46294  0.45835  0.94933  1.0000
  H   H1642     1.0  0.38022  0.40298  0.51371  1.0000
  C   C939      1.0  0.41317  0.51928  0.98492  1.0000
  C   C940      1.0  0.45970  0.47242  0.95173  1.0000
  H   H1643     1.0  0.38357  0.35305  0.94850  1.0000
  C   C941      1.0  0.49675  0.43428  0.92448  1.0000
  H   H1644     1.0  0.26060  0.36179  0.70190  1.0000
  N   N53       1.0  0.45878  0.61375  0.64068  1.0000
  C   C942      1.0  0.45451  0.62136  0.67239  1.0000
  C   C943      1.0  0.47836  0.61264  0.63676  1.0000
  C   C944      1.0  0.45191  0.62646  0.61632  1.0000
  C   C945      1.0  0.45062  0.59614  0.63554  1.0000
  C   C946      1.0  0.44823  0.58421  0.66475  1.0000
  C   C947      1.0  0.43503  0.62643  0.67781  1.0000
  C   C948      1.0  0.45607  0.62200  0.58168  1.0000
  H   H1645     1.0  0.27149  0.61405  0.96836  1.0000
  C   C949      1.0  0.44249  0.56593  0.65556  1.0000
  C   C950      1.0  0.43074  0.62855  0.71254  1.0000
  C   C951      1.0  0.44716  0.63505  0.55956  1.0000
  H   H1646     1.0  0.46221  0.63339  0.67628  1.0000
  H   H1647     1.0  0.45855  0.61237  0.69150  1.0000
  H   H1648     1.0  0.48192  0.60757  0.61324  1.0000
  H   H1649     1.0  0.48400  0.62596  0.63813  1.0000
  H   H1650     1.0  0.45686  0.63983  0.62085  1.0000
  H   H1651     1.0  0.43742  0.62745  0.61773  1.0000
  H   H1652     1.0  0.43741  0.59772  0.62518  1.0000
  H   H1653     1.0  0.45819  0.58866  0.61769  1.0000
  H   H1654     1.0  0.43797  0.58966  0.68045  1.0000
  H   H1655     1.0  0.46033  0.58280  0.67851  1.0000
  H   H1656     1.0  0.43200  0.63909  0.66606  1.0000
  H   H1657     1.0  0.42623  0.61653  0.66802  1.0000
  H   H1658     1.0  0.45147  0.60873  0.57596  1.0000
  H   H1659     1.0  0.47024  0.62268  0.57659  1.0000
  C   C952      1.0  0.27208  0.40483  0.71268  1.0000
  C   C953      1.0  0.49794  0.59676  0.51802  1.0000
  H   H1660     1.0  0.42950  0.56656  0.64418  1.0000
  H   H1661     1.0  0.45210  0.55975  0.63936  1.0000
  C   C954      1.0  0.27278  0.66734  0.86196  1.0000
  H   H1662     1.0  0.46500  0.49525  0.92136  1.0000
  H   H1663     1.0  0.48991  0.46413  0.97266  1.0000
  H   H1664     1.0  0.45205  0.64843  0.56358  1.0000
  H   H1665     1.0  0.43921  0.63851  0.72325  1.0000
  H   H1666     1.0  0.48072  0.47740  0.91821  1.0000
  C   C955      1.0  0.38157  0.34805  0.92439  1.0000
  H   H1667     1.0  0.36190  0.34033  0.97656  1.0000
  H   H1668     1.0  0.33715  0.38024  0.89545  1.0000
  H   H1669     1.0  0.45011  0.63140  0.53497  1.0000
  C   C956      1.0  0.36103  0.34772  0.50942  1.0000
  H   H1670     1.0  0.31906  0.64734  0.91875  1.0000
  H   H1671     1.0  0.46274  0.47981  0.87111  1.0000
  H   H1672     1.0  0.42690  0.58803  0.94306  1.0000
  H   H1673     1.0  0.43726  0.41725  0.53533  1.0000
  H   H1674     1.0  0.43279  0.63505  0.56296  1.0000
  N   N54       1.0  0.38521  0.56200  0.90191  1.0000
  C   C957      1.0  0.38991  0.54325  0.89453  1.0000
  C   C958      1.0  0.37321  0.56234  0.93007  1.0000
  C   C959      1.0  0.37503  0.56938  0.87454  1.0000
  C   C960      1.0  0.40100  0.57329  0.90711  1.0000
  C   C961      1.0  0.41762  0.56430  0.92063  1.0000
  C   C962      1.0  0.39915  0.54017  0.86258  1.0000
  C   C963      1.0  0.36741  0.58811  0.87894  1.0000
  C   C964      1.0  0.38054  0.55443  0.96076  1.0000
  H   H1675     1.0  0.29129  0.40393  0.59736  1.0000
  H   H1676     1.0  0.30458  0.39322  0.62654  1.0000
  C   C965      1.0  0.40825  0.52228  0.86149  1.0000
  C   C966      1.0  0.36159  0.59614  0.84786  1.0000
  H   H1677     1.0  0.37797  0.53510  0.89466  1.0000
  H   H1678     1.0  0.39827  0.53740  0.91298  1.0000
  H   H1679     1.0  0.36937  0.57599  0.93609  1.0000
  H   H1680     1.0  0.36087  0.55550  0.92457  1.0000
  H   H1681     1.0  0.36398  0.56069  0.86861  1.0000
  H   H1682     1.0  0.38344  0.56987  0.85325  1.0000
  H   H1683     1.0  0.40525  0.57956  0.88481  1.0000
  H   H1684     1.0  0.39751  0.58438  0.92284  1.0000
  H   H1685     1.0  0.42322  0.55470  0.90393  1.0000
  H   H1686     1.0  0.29109  0.38438  0.67693  1.0000
  H   H1687     1.0  0.38935  0.54062  0.84349  1.0000
  H   H1688     1.0  0.40895  0.55035  0.85763  1.0000
  H   H1689     1.0  0.37722  0.59687  0.88914  1.0000
  H   H1690     1.0  0.35584  0.58785  0.89467  1.0000
  H   H1691     1.0  0.38587  0.54107  0.95754  1.0000
  H   H1692     1.0  0.39081  0.56298  0.96988  1.0000
  C   C967      1.0  0.35826  0.66054  0.98931  1.0000
  H   H1693     1.0  0.33836  0.37897  0.93708  1.0000
  N   N55       1.0  0.46651  0.47939  0.98224  1.0000
  C   C968      1.0  0.49624  0.39650  0.86313  1.0000
  H   H1694     1.0  0.28510  0.42168  0.76541  1.0000
  Fe  Fe109     1.0  0.31560  0.65286  0.81522  1.0000
  C   C969      1.0  0.48602  0.47649  0.98471  1.0000
  H   H1695     1.0  0.39885  0.51172  0.86669  1.0000
  H   H1696     1.0  0.35191  0.58774  0.83623  1.0000
  H   H1697     1.0  0.48511  0.60322  0.68441  1.0000
  H   H1698     1.0  0.29176  0.36430  0.71509  1.0000
  H   H1699     1.0  0.29998  0.66546  0.95994  1.0000
  C   C970      1.0  0.41473  0.34837  0.92299  1.0000
  H   H1700     1.0  0.41385  0.52006  0.83781  1.0000
  C   C971      1.0  0.39802  0.35322  0.90539  1.0000
  H   H1701     1.0  0.26494  0.40013  0.62958  1.0000
  H   H1702     1.0  0.31569  0.38547  0.97828  1.0000
  S   S216      1.0  0.32058  0.66901  0.77247  1.0000
  H   H1703     1.0  0.35698  0.34384  0.81562  1.0000
  C   C972      1.0  0.34835  0.34034  0.53366  1.0000
  C   C973      1.0  0.41758  0.47818  0.49493  1.0000
  H   H1704     1.0  0.47970  0.53698  0.50668  1.0000
  Fe  Fe110     1.0  0.31012  0.33922  0.66923  1.0000
  H   H1705     1.0  0.34476  0.36577  0.85404  1.0000
  H   H1706     1.0  0.50067  0.58731  0.98979  1.0000
  H   H1707     1.0  0.45225  0.44363  0.98838  1.0000
  H   H1708     1.0  0.49741  0.50259  0.98821  1.0000
  H   H1709     1.0  0.31620  0.64561  0.98175  1.0000
  C   C974      1.0  0.30764  0.63427  0.98571  1.0000
  H   H1710     1.0  0.27432  0.34093  0.74038  1.0000
  H   H1711     1.0  0.32355  0.35273  0.97559  1.0000
  H   H1712     1.0  0.25902  0.35739  0.57034  1.0000
  C   C975      1.0  0.25562  0.35097  0.59211  1.0000
  S   S217      1.0  0.37683  0.60096  0.99142  1.0000
  C   C976      1.0  0.35139  0.34883  0.96674  1.0000
  H   H1713     1.0  0.36048  0.56626  0.99073  1.0000
  C   C977      1.0  0.35010  0.34604  0.93087  1.0000
  C   C978      1.0  0.34578  0.35179  0.86059  1.0000
  C   C979      1.0  0.34526  0.34134  0.83022  1.0000
  H   H1714     1.0  0.33356  0.34525  0.81648  1.0000
  H   H1715     1.0  0.31649  0.40835  0.98872  1.0000
  H   H1716     1.0  0.33615  0.39520  0.98854  1.0000
  C   C980      1.0  0.48762  0.54653  0.49333  1.0000
  H   H1717     1.0  0.25391  0.37482  0.73376  1.0000
  H   H1718     1.0  0.28591  0.67035  0.92795  1.0000
  S   S218      1.0  0.32980  0.67091  0.84727  1.0000
  H   H1719     1.0  0.31746  0.66890  0.69532  1.0000
  Fe  Fe111     1.0  0.33643  0.69042  0.30426  1.0000
  H   H1720     1.0  0.26443  0.67752  0.29272  1.0000
  S   S219      1.0  0.32729  0.71906  0.29962  1.0000
  H   H1721     1.0  0.38036  0.78408  0.44599  1.0000
  Fe  Fe112     1.0  0.34951  0.82005  0.30864  1.0000
  S   S220      1.0  0.33091  0.82943  0.27183  1.0000
  S   S221      1.0  0.36367  0.79365  0.30521  1.0000
  Fe  Fe113     1.0  0.34611  0.85424  0.34536  1.0000
  S   S222      1.0  0.32700  0.86571  0.31043  1.0000
  S   S223      1.0  0.35018  0.87019  0.38988  1.0000
  Fe  Fe114     1.0  0.31435  0.83939  0.31194  1.0000
  S   S224      1.0  0.28543  0.83221  0.31182  1.0000
  Fe  Fe115     1.0  0.34530  0.85493  0.27330  1.0000
  S   S225      1.0  0.34986  0.86896  0.22603  1.0000
  S   S226      1.0  0.33233  0.82845  0.34874  1.0000
  S   S227      1.0  0.36511  0.84499  0.30822  1.0000
  Fe  Fe116     1.0  0.44317  0.92275  0.04537  1.0000
  S   S228      1.0  0.42835  0.93715  0.08279  1.0000
  S   S229      1.0  0.47171  0.93164  0.04501  1.0000
  Fe  Fe117     1.0  0.40861  0.90740  0.02095  1.0000
  S   S230      1.0  0.39212  0.92185  0.05685  1.0000
  H   H1722     1.0  0.49560  0.90386  0.11302  1.0000
  Fe  Fe118     1.0  0.40950  0.94486  0.04499  1.0000
  S   S231      1.0  0.40486  0.97456  0.04631  1.0000
  Fe  Fe119     1.0  0.41262  0.91303  0.09150  1.0000
  S   S232      1.0  0.41152  0.90118  0.14144  1.0000
  H   H1723     1.0  0.40227  0.99359  0.36843  1.0000
  S   S233      1.0  0.42867  0.89806  0.05617  1.0000
  H   H1724     1.0  0.38033  0.99818  0.38248  1.0000
  H   H1725     1.0  0.37815  0.91951  0.40258  1.0000
  H   H1726     1.0  0.40857  0.97695  0.41739  1.0000
  C   C981      1.0  0.43010  0.91778  0.42857  1.0000
  H   H1727     1.0  0.27209  0.87013  0.28593  1.0000
  C   C982      1.0  0.36877  0.87334  0.41358  1.0000
  C   C983      1.0  0.36701  0.88348  0.44080  1.0000
  C   C984      1.0  0.38115  0.88552  0.46134  1.0000
  C   C985      1.0  0.39725  0.87756  0.45471  1.0000
  C   C986      1.0  0.39907  0.86760  0.42728  1.0000
  C   C987      1.0  0.38494  0.86561  0.40668  1.0000
  H   H1728     1.0  0.35455  0.88956  0.44625  1.0000
  H   H1729     1.0  0.44814  0.86391  0.07523  1.0000
  H   H1730     1.0  0.41151  0.86144  0.42192  1.0000
  H   H1731     1.0  0.38650  0.85811  0.38550  1.0000
  C   C988      1.0  0.36726  0.87825  0.20347  1.0000
  C   C989      1.0  0.38462  0.87807  0.21350  1.0000
  C   C990      1.0  0.39790  0.88510  0.19426  1.0000
  C   C991      1.0  0.39411  0.89239  0.16462  1.0000
  C   C992      1.0  0.37675  0.89257  0.15462  1.0000
  C   C993      1.0  0.36347  0.88566  0.17397  1.0000
  H   H1732     1.0  0.38779  0.87275  0.23623  1.0000
  H   H1733     1.0  0.41120  0.88504  0.20251  1.0000
  H   H1734     1.0  0.37352  0.89818  0.13207  1.0000
  H   H1735     1.0  0.35012  0.88608  0.16595  1.0000
  C   C994      1.0  0.27213  0.85249  0.36043  1.0000
  C   C995      1.0  0.26907  0.83940  0.33855  1.0000
  C   C996      1.0  0.37984  0.91258  0.34230  1.0000
  H   H1736     1.0  0.28486  0.85838  0.36154  1.0000
  C   C997      1.0  0.37949  0.93214  0.39005  1.0000
  C   C998      1.0  0.33785  0.73953  0.30302  1.0000
  C   C999      1.0  0.32753  0.75489  0.30387  1.0000
  C   C1000     1.0  0.33519  0.77150  0.30529  1.0000
  C   C1001     1.0  0.35335  0.77298  0.30529  1.0000
  C   C1002     1.0  0.36370  0.75764  0.30491  1.0000
  C   C1003     1.0  0.35601  0.74100  0.30392  1.0000
  H   H1737     1.0  0.31347  0.75392  0.30312  1.0000
  H   H1738     1.0  0.32704  0.78315  0.30562  1.0000
  H   H1739     1.0  0.37775  0.75861  0.30501  1.0000
  H   H1740     1.0  0.36412  0.72933  0.30322  1.0000
  H   H1741     1.0  0.33285  0.76209  0.37722  1.0000
  H   H1742     1.0  0.26713  0.78048  0.41962  1.0000
  H   H1743     1.0  0.47706  0.86901  0.16049  1.0000
  C   C1004     1.0  0.49231  0.92077  0.04718  1.0000
  H   H1744     1.0  0.48373  0.89591  0.03059  1.0000
  H   H1745     1.0  0.43423  0.91671  0.40370  1.0000
  C   C1005     1.0  0.40570  0.76223  0.42842  1.0000
  H   H1746     1.0  0.43549  0.85976  0.20138  1.0000
  N   N56       1.0  0.38819  0.94560  0.41021  1.0000
  H   H1747     1.0  0.44554  0.94277  0.14859  1.0000
  S   S234      1.0  0.41515  0.87906  0.48061  1.0000
  H   H1748     1.0  0.29448  0.79164  0.39626  1.0000
  H   H1749     1.0  0.35830  0.92774  0.43966  1.0000
  H   H1750     1.0  0.39837  0.79752  0.43750  1.0000
  H   H1751     1.0  0.41241  0.95003  0.43474  1.0000
  H   H1752     1.0  0.35361  0.81869  0.45922  1.0000
  C   C1006     1.0  0.46175  0.86652  0.06771  1.0000
  H   H1753     1.0  0.38610  0.95453  0.45819  1.0000
  C   C1007     1.0  0.26832  0.79565  0.37733  1.0000
  H   H1754     1.0  0.46159  0.95577  0.12873  1.0000
  C   C1008     1.0  0.43140  0.99567  0.46941  1.0000
  H   H1755     1.0  0.49987  0.98232  0.02027  1.0000
  H   H1756     1.0  0.45604  0.85042  0.18872  1.0000
  H   H1757     1.0  0.46163  0.87670  0.04914  1.0000
  H   H1758     1.0  0.37388  0.80940  0.47336  1.0000
  H   H1759     1.0  0.40369  0.91195  0.41829  1.0000
  H   H1760     1.0  0.29377  0.80179  0.35820  1.0000
  H   H1761     1.0  0.35205  0.79441  0.43266  1.0000
  H   H1762     1.0  0.38727  0.76830  0.39237  1.0000
  H   H1763     1.0  0.38253  0.79361  0.36236  1.0000
  C   C1009     1.0  0.40560  0.99035  0.01565  1.0000
  C   C1010     1.0  0.39397  0.99522  0.38961  1.0000
  N   N57       1.0  0.36766  0.81357  0.19273  1.0000
  C   C1011     1.0  0.36026  0.80008  0.21485  1.0000
  C   C1012     1.0  0.37862  0.82655  0.21035  1.0000
  C   C1013     1.0  0.35242  0.82355  0.17862  1.0000
  C   C1014     1.0  0.37800  0.80535  0.16639  1.0000
  C   C1015     1.0  0.39323  0.79299  0.17589  1.0000
  C   C1016     1.0  0.34913  0.78560  0.19976  1.0000
  C   C1017     1.0  0.35712  0.83861  0.15575  1.0000
  C   C1018     1.0  0.38928  0.81960  0.23870  1.0000
  C   C1019     1.0  0.40238  0.83306  0.24978  1.0000
  C   C1020     1.0  0.40055  0.78324  0.14748  1.0000
  C   C1021     1.0  0.34283  0.77258  0.22436  1.0000
  C   C1022     1.0  0.34077  0.84878  0.14564  1.0000
  H   H1764     1.0  0.35214  0.80664  0.23310  1.0000
  H   H1765     1.0  0.37065  0.79316  0.22817  1.0000
  H   H1766     1.0  0.38772  0.83328  0.19403  1.0000
  H   H1767     1.0  0.37021  0.83719  0.22025  1.0000
  H   H1768     1.0  0.34400  0.82916  0.19759  1.0000
  H   H1769     1.0  0.34397  0.81479  0.16498  1.0000
  H   H1770     1.0  0.36917  0.79820  0.15046  1.0000
  H   H1771     1.0  0.38400  0.81560  0.15147  1.0000
  H   H1772     1.0  0.38917  0.78304  0.19326  1.0000
  H   H1773     1.0  0.40404  0.80072  0.18561  1.0000
  H   H1774     1.0  0.33730  0.79111  0.18842  1.0000
  H   H1775     1.0  0.35684  0.77815  0.18216  1.0000
  H   H1776     1.0  0.36335  0.83341  0.13418  1.0000
  H   H1777     1.0  0.36615  0.84795  0.16655  1.0000
  H   H1778     1.0  0.38031  0.81687  0.25855  1.0000
  H   H1779     1.0  0.39656  0.80741  0.23343  1.0000
  H   H1780     1.0  0.39545  0.84502  0.25800  1.0000
  H   H1781     1.0  0.41007  0.82758  0.26953  1.0000
  H   H1782     1.0  0.41153  0.83656  0.23060  1.0000
  H   H1783     1.0  0.40517  0.79260  0.12940  1.0000
  H   H1784     1.0  0.41175  0.77483  0.15473  1.0000
  H   H1785     1.0  0.39044  0.77478  0.13719  1.0000
  H   H1786     1.0  0.33519  0.76217  0.21304  1.0000
  H   H1787     1.0  0.35405  0.76633  0.23665  1.0000
  H   H1788     1.0  0.33427  0.77931  0.24166  1.0000
  H   H1789     1.0  0.34448  0.85939  0.12920  1.0000
  H   H1790     1.0  0.33152  0.84007  0.13363  1.0000
  H   H1791     1.0  0.33419  0.85481  0.16622  1.0000
  C   C1023     1.0  0.42520  0.98126  0.48669  1.0000
  C   C1024     1.0  0.38141  0.80598  0.37553  1.0000
  H   H1792     1.0  0.28742  0.68942  0.32628  1.0000
  C   C1025     1.0  0.37525  0.82020  0.42530  1.0000
  H   H1793     1.0  0.37469  0.96583  0.38377  1.0000
  C   C1026     1.0  0.26393  0.69174  0.29780  1.0000
  C   C1027     1.0  0.39892  0.81567  0.37155  1.0000
  C   C1028     1.0  0.33462  0.77509  0.38811  1.0000
  C   C1029     1.0  0.37780  0.94851  0.44002  1.0000
  H   H1794     1.0  0.38596  0.83968  0.47696  1.0000
  C   C1030     1.0  0.40604  0.81383  0.33825  1.0000
  C   C1031     1.0  0.38813  0.96263  0.39213  1.0000
  H   H1795     1.0  0.37133  0.81384  0.36275  1.0000
  C   C1032     1.0  0.36894  0.93238  0.45493  1.0000
  C   C1033     1.0  0.49473  0.90333  0.03848  1.0000
  H   H1796     1.0  0.36744  0.83001  0.41166  1.0000
  H   H1797     1.0  0.38865  0.82554  0.42665  1.0000
  H   H1798     1.0  0.28301  0.71126  0.31150  1.0000
  H   H1799     1.0  0.25766  0.86759  0.25329  1.0000
  H   H1800     1.0  0.40693  0.92191  0.45594  1.0000
  H   H1801     1.0  0.32879  0.78513  0.37230  1.0000
  H   H1802     1.0  0.39689  0.82981  0.37597  1.0000
  H   H1803     1.0  0.40893  0.81074  0.38815  1.0000
  H   H1804     1.0  0.29124  0.69464  0.28573  1.0000
  H   H1805     1.0  0.46005  0.99699  0.99794  1.0000
  H   H1806     1.0  0.26480  0.67956  0.42059  1.0000
  C   C1034     1.0  0.36800  0.82015  0.45930  1.0000
  H   H1807     1.0  0.32364  0.67947  0.42643  1.0000
  H   H1808     1.0  0.46609  0.94735  0.16741  1.0000
  S   S235      1.0  0.42452  0.93087  0.00708  1.0000
  H   H1809     1.0  0.39628  0.81874  0.32110  1.0000
  H   H1810     1.0  0.41811  0.82155  0.33561  1.0000
  H   H1811     1.0  0.40917  0.79994  0.33302  1.0000
  C   C1035     1.0  0.26040  0.87574  0.27406  1.0000
  S   S236      1.0  0.36180  0.67534  0.29750  1.0000
  C   C1036     1.0  0.25861  0.85822  0.38054  1.0000
  N   N58       1.0  0.47344  0.89497  0.14033  1.0000
  C   C1037     1.0  0.47027  0.88153  0.16567  1.0000
  H   H1812     1.0  0.36823  0.67115  0.04663  1.0000
  C   C1038     1.0  0.46449  0.91172  0.15061  1.0000
  C   C1039     1.0  0.46572  0.88965  0.10946  1.0000
  C   C1040     1.0  0.47267  0.87225  0.09553  1.0000
  C   C1041     1.0  0.45090  0.87702  0.17234  1.0000
  C   C1042     1.0  0.46789  0.92809  0.13006  1.0000
  H   H1813     1.0  0.32765  0.77530  0.41095  1.0000
  H   H1814     1.0  0.44473  0.99557  0.46097  1.0000
  H   H1815     1.0  0.35936  0.76765  0.40739  1.0000
  C   C1043     1.0  0.44947  0.86258  0.19699  1.0000
  C   C1044     1.0  0.45977  0.94446  0.14474  1.0000
  H   H1816     1.0  0.47603  0.88605  0.18806  1.0000
  C   C1045     1.0  0.37171  0.83730  0.47590  1.0000
  H   H1817     1.0  0.36020  0.77759  0.36913  1.0000
  H   H1818     1.0  0.37839  0.92159  0.45844  1.0000
  H   H1819     1.0  0.46829  0.91492  0.17505  1.0000
  H   H1820     1.0  0.45006  0.91026  0.15088  1.0000
  H   H1821     1.0  0.45125  0.88920  0.11117  1.0000
  H   H1822     1.0  0.46824  0.89974  0.09126  1.0000
  H   H1823     1.0  0.47242  0.86145  0.11279  1.0000
  H   H1824     1.0  0.28986  0.77875  0.36187  1.0000
  H   H1825     1.0  0.44357  0.88851  0.18150  1.0000
  H   H1826     1.0  0.44433  0.87237  0.15095  1.0000
  H   H1827     1.0  0.46181  0.92641  0.10695  1.0000
  H   H1828     1.0  0.48197  0.93053  0.12645  1.0000
  C   C1046     1.0  0.28247  0.69712  0.30601  1.0000
  C   C1047     1.0  0.39480  0.97882  0.41010  1.0000
  H   H1829     1.0  0.36693  0.95808  0.43589  1.0000
  H   H1830     1.0  0.47493  0.99837  0.04375  1.0000
  H   H1831     1.0  0.48621  0.87398  0.08687  1.0000
  H   H1832     1.0  0.36584  0.93642  0.38484  1.0000
  H   H1833     1.0  0.33313  0.86414  0.46930  1.0000
  H   H1834     1.0  0.39608  0.75569  0.44389  1.0000
  H   H1835     1.0  0.45542  0.86673  0.21934  1.0000
  H   H1836     1.0  0.43801  0.92788  0.44021  1.0000
  H   H1837     1.0  0.38678  0.98145  0.43125  1.0000
  N   N59       1.0  0.37558  0.80277  0.40879  1.0000
  H   H1838     1.0  0.48361  0.98256  0.07072  1.0000
  H   H1839     1.0  0.35756  0.99726  0.05965  1.0000
  C   C1048     1.0  0.38756  0.79030  0.42627  1.0000
  H   H1840     1.0  0.46741  0.85434  0.05766  1.0000
  C   C1049     1.0  0.35407  0.77838  0.39250  1.0000
  C   C1050     1.0  0.35710  0.79618  0.40848  1.0000
  C   C1051     1.0  0.40694  0.94083  0.41737  1.0000
  H   H1841     1.0  0.38090  0.90056  0.35691  1.0000
  C   C1052     1.0  0.25935  0.78161  0.39793  1.0000
  C   C1053     1.0  0.39655  0.77549  0.40701  1.0000
  H   H1842     1.0  0.26257  0.79611  0.35358  1.0000
  H   H1843     1.0  0.40661  0.78092  0.39112  1.0000
  H   H1844     1.0  0.37953  0.89301  0.48255  1.0000
  H   H1845     1.0  0.26708  0.80877  0.38807  1.0000
  H   H1846     1.0  0.26118  0.76877  0.38607  1.0000
  C   C1054     1.0  0.28779  0.79162  0.37328  1.0000
  H   H1847     1.0  0.34836  0.80611  0.39726  1.0000
  H   H1848     1.0  0.35114  0.94769  0.48431  1.0000
  H   H1849     1.0  0.43274  0.90503  0.44020  1.0000
  H   H1850     1.0  0.50206  0.87107  0.12988  1.0000
  H   H1851     1.0  0.41236  0.75207  0.41403  1.0000
  H   H1852     1.0  0.36583  0.91558  0.33796  1.0000
  H   H1853     1.0  0.40251  0.92428  0.36184  1.0000
  S   S237      1.0  0.32979  0.67728  0.34990  1.0000
  C   C1055     1.0  0.49278  0.89845  0.13678  1.0000
  C   C1056     1.0  0.41065  0.92233  0.43083  1.0000
  H   H1854     1.0  0.41520  0.94255  0.39608  1.0000
  H   H1855     1.0  0.36520  0.84832  0.46348  1.0000
  H   H1856     1.0  0.34913  0.67445  0.09525  1.0000
  H   H1857     1.0  0.26073  0.80218  0.44962  1.0000
  C   C1057     1.0  0.48644  0.99495  0.05813  1.0000
  H   H1858     1.0  0.38777  0.93927  0.34227  1.0000
  H   H1859     1.0  0.35737  0.67709  0.15183  1.0000
  H   H1860     1.0  0.38631  0.90998  0.31945  1.0000
  C   C1058     1.0  0.39704  0.99564  0.49085  1.0000
  H   H1861     1.0  0.25433  0.70872  0.33413  1.0000
  H   H1862     1.0  0.39640  0.96153  0.37075  1.0000
  C   C1059     1.0  0.38859  0.92791  0.35844  1.0000
  C   C1060     1.0  0.36071  0.93674  0.48660  1.0000
  C   C1061     1.0  0.50264  0.99276  0.03735  1.0000
  H   H1863     1.0  0.41564  0.76872  0.44298  1.0000
  H   H1864     1.0  0.49689  0.90871  0.15351  1.0000
  H   H1865     1.0  0.33458  0.67254  0.14633  1.0000
  H   H1866     1.0  0.26003  0.69889  0.27626  1.0000
  H   H1867     1.0  0.25564  0.75361  0.43803  1.0000
  H   H1868     1.0  0.28822  0.67147  0.38251  1.0000
  H   H1869     1.0  0.26108  0.86852  0.39710  1.0000
  H   H1870     1.0  0.37928  0.00239  0.07216  1.0000
  H   H1871     1.0  0.26339  0.88925  0.26639  1.0000
  H   H1872     1.0  0.43979  0.96678  0.00166  1.0000
  H   H1873     1.0  0.46334  0.96585  0.00408  1.0000
  H   H1874     1.0  0.25438  0.68626  0.34438  1.0000
  H   H1875     1.0  0.43374  0.97022  0.49153  1.0000
  S   S238      1.0  0.32143  0.67097  0.27595  1.0000
  Fe  Fe120     1.0  0.33599  0.68651  0.80375  1.0000
  H   H1876     1.0  0.30121  0.86799  0.86953  1.0000
  S   S239      1.0  0.32806  0.71496  0.79345  1.0000
  H   H1877     1.0  0.34879  0.91224  0.61332  1.0000
  Fe  Fe121     1.0  0.34289  0.81755  0.81883  1.0000
  S   S240      1.0  0.32637  0.82354  0.77670  1.0000
  S   S241      1.0  0.35302  0.79076  0.83498  1.0000
  Fe  Fe122     1.0  0.34704  0.85640  0.83487  1.0000
  S   S242      1.0  0.33091  0.86473  0.79329  1.0000
  S   S243      1.0  0.35674  0.87992  0.86225  1.0000
  Fe  Fe123     1.0  0.31273  0.84326  0.80811  1.0000
  S   S244      1.0  0.28330  0.84934  0.80848  1.0000
  Fe  Fe124     1.0  0.34592  0.84466  0.76564  1.0000
  S   S245      1.0  0.35859  0.84660  0.71665  1.0000
  S   S246      1.0  0.32809  0.83603  0.85097  1.0000
  S   S247      1.0  0.36318  0.83752  0.80628  1.0000
  Fe  Fe125     1.0  0.44525  0.91792  0.55829  1.0000
  S   S248      1.0  0.42443  0.93429  0.58216  1.0000
  S   S249      1.0  0.47300  0.92384  0.57444  1.0000
  Fe  Fe126     1.0  0.41801  0.89956  0.51883  1.0000
  S   S250      1.0  0.39565  0.91462  0.54001  1.0000
  H   H1878     1.0  0.34963  0.90583  0.54199  1.0000
  Fe  Fe127     1.0  0.41288  0.93807  0.53445  1.0000
  S   S251      1.0  0.39918  0.96328  0.51861  1.0000
  Fe  Fe128     1.0  0.40884  0.90965  0.58642  1.0000
  S   S252      1.0  0.39348  0.90655  0.63271  1.0000
  C   C1062     1.0  0.40715  0.85339  0.83094  1.0000
  S   S253      1.0  0.43040  0.89296  0.56559  1.0000
  H   H1879     1.0  0.44944  0.99887  0.91370  1.0000
  H   H1880     1.0  0.40172  0.86597  0.57063  1.0000
  H   H1881     1.0  0.27821  0.88056  0.96965  1.0000
  H   H1882     1.0  0.39466  0.86236  0.53088  1.0000
  C   C1063     1.0  0.40273  0.84939  0.86509  1.0000
  C   C1064     1.0  0.36825  0.88098  0.89817  1.0000
  C   C1065     1.0  0.37414  0.89728  0.90850  1.0000
  C   C1066     1.0  0.38310  0.89885  0.93710  1.0000
  C   C1067     1.0  0.38631  0.88407  0.95568  1.0000
  C   C1068     1.0  0.38032  0.86779  0.94538  1.0000
  C   C1069     1.0  0.37127  0.86625  0.91690  1.0000
  H   H1883     1.0  0.37174  0.90880  0.89434  1.0000
  H   H1884     1.0  0.38759  0.91145  0.94473  1.0000
  H   H1885     1.0  0.38271  0.85628  0.95958  1.0000
  H   H1886     1.0  0.36668  0.85366  0.90949  1.0000
  C   C1070     1.0  0.36813  0.86356  0.69376  1.0000
  C   C1071     1.0  0.36599  0.88125  0.70103  1.0000
  C   C1072     1.0  0.37393  0.89415  0.68220  1.0000
  C   C1073     1.0  0.38414  0.88959  0.65588  1.0000
  C   C1074     1.0  0.38626  0.87189  0.64859  1.0000
  C   C1075     1.0  0.37814  0.85902  0.66719  1.0000
  H   H1887     1.0  0.35809  0.88500  0.72098  1.0000
  H   H1888     1.0  0.37209  0.90779  0.68801  1.0000
  H   H1889     1.0  0.39422  0.86813  0.62874  1.0000
  H   H1890     1.0  0.37989  0.84538  0.66128  1.0000
  C   C1076     1.0  0.27322  0.83829  0.86806  1.0000
  C   C1077     1.0  0.26812  0.84560  0.83941  1.0000
  H   H1891     1.0  0.39742  0.84418  0.55736  1.0000
  H   H1892     1.0  0.28664  0.83420  0.87133  1.0000
  H   H1893     1.0  0.41670  0.85355  0.77437  1.0000
  C   C1078     1.0  0.33536  0.73579  0.80560  1.0000
  C   C1079     1.0  0.34960  0.73786  0.82549  1.0000
  C   C1080     1.0  0.35485  0.75476  0.83411  1.0000
  C   C1081     1.0  0.34605  0.76978  0.82282  1.0000
  C   C1082     1.0  0.33192  0.76768  0.80266  1.0000
  C   C1083     1.0  0.32660  0.75079  0.79425  1.0000
  H   H1894     1.0  0.35650  0.72647  0.83437  1.0000
  H   H1895     1.0  0.36578  0.75623  0.84973  1.0000
  H   H1896     1.0  0.32496  0.77906  0.79391  1.0000
  H   H1897     1.0  0.31546  0.74932  0.77918  1.0000
  H   H1898     1.0  0.48416  0.89623  0.53076  1.0000
  H   H1899     1.0  0.37529  0.87726  0.77237  1.0000
  H   H1900     1.0  0.35437  0.88365  0.62069  1.0000
  H   H1901     1.0  0.27188  0.85984  0.95350  1.0000
  H   H1902     1.0  0.31212  0.76417  0.72883  1.0000
  H   H1903     1.0  0.38362  0.99563  0.49875  1.0000
  N   N60       1.0  0.30008  0.87765  0.91708  1.0000
  C   C1084     1.0  0.30550  0.87952  0.88321  1.0000
  C   C1085     1.0  0.30546  0.85971  0.92865  1.0000
  H   H1904     1.0  0.33537  0.90173  0.97655  1.0000
  C   C1086     1.0  0.32976  0.86268  0.49450  1.0000
  H   H1905     1.0  0.37185  0.88491  0.54169  1.0000
  C   C1087     1.0  0.29814  0.89599  0.86618  1.0000
  H   H1906     1.0  0.38862  0.89198  0.75102  1.0000
  C   C1088     1.0  0.32527  0.85560  0.92994  1.0000
  H   H1907     1.0  0.49892  0.89114  0.62272  1.0000
  H   H1908     1.0  0.46189  0.89052  0.80158  1.0000
  C   C1089     1.0  0.30734  0.89909  0.83495  1.0000
  C   C1090     1.0  0.41695  0.88998  0.78818  1.0000
  H   H1909     1.0  0.31988  0.87943  0.88061  1.0000
  H   H1910     1.0  0.29856  0.90338  0.93844  1.0000
  H   H1911     1.0  0.30863  0.76456  0.68697  1.0000
  H   H1912     1.0  0.42057  0.99351  0.59376  1.0000
  H   H1913     1.0  0.38858  0.91359  0.79157  1.0000
  H   H1914     1.0  0.32477  0.70235  0.73069  1.0000
  H   H1915     1.0  0.37497  0.71931  0.77574  1.0000
  H   H1916     1.0  0.37199  0.70636  0.66878  1.0000
  H   H1917     1.0  0.32295  0.82772  0.92044  1.0000
  H   H1918     1.0  0.41886  0.85446  0.68770  1.0000
  C   C1091     1.0  0.32627  0.88140  0.61643  1.0000
  H   H1919     1.0  0.33183  0.85825  0.90733  1.0000
  C   C1092     1.0  0.26095  0.83639  0.89255  1.0000
  H   H1920     1.0  0.27460  0.87026  0.90011  1.0000
  C   C1093     1.0  0.45206  0.96504  0.98798  1.0000
  C   C1094     1.0  0.39315  0.85806  0.55558  1.0000
  C   C1095     1.0  0.27155  0.87421  0.94982  1.0000
  H   H1921     1.0  0.45045  0.89958  0.76837  1.0000
  C   C1096     1.0  0.34492  0.90184  0.56557  1.0000
  H   H1922     1.0  0.30458  0.88820  0.81874  1.0000
  C   C1097     1.0  0.35314  0.91474  0.58895  1.0000
  C   C1098     1.0  0.33761  0.87221  0.54956  1.0000
  H   H1923     1.0  0.47943  0.99990  0.92741  1.0000
  H   H1924     1.0  0.41386  0.90061  0.80508  1.0000
  H   H1925     1.0  0.42406  0.87464  0.73161  1.0000
  C   C1099     1.0  0.37960  0.90243  0.79441  1.0000
  H   H1926     1.0  0.34303  0.83384  0.93877  1.0000
  H   H1927     1.0  0.32320  0.83325  0.96157  1.0000
  C   C1100     1.0  0.40612  0.86214  0.76524  1.0000
  C   C1101     1.0  0.38624  0.88662  0.77480  1.0000
  H   H1928     1.0  0.39444  0.85365  0.76358  1.0000
  S   S254      1.0  0.43450  0.92331  0.51016  1.0000
  H   H1929     1.0  0.40975  0.83733  0.87273  1.0000
  H   H1930     1.0  0.40264  0.84214  0.81696  1.0000
  H   H1931     1.0  0.43464  0.87918  0.82348  1.0000
  H   H1932     1.0  0.38851  0.84720  0.86769  1.0000
  H   H1933     1.0  0.41835  0.89671  0.76516  1.0000
  H   H1934     1.0  0.37869  0.89928  0.81966  1.0000
  H   H1935     1.0  0.35305  0.93713  0.55718  1.0000
  C   C1102     1.0  0.31853  0.76583  0.70567  1.0000
  C   C1103     1.0  0.36157  0.90861  0.78362  1.0000
  H   H1936     1.0  0.31669  0.87349  0.60352  1.0000
  H   H1937     1.0  0.37236  0.69404  0.61595  1.0000
  H   H1938     1.0  0.40660  0.86030  0.88052  1.0000
  H   H1939     1.0  0.47249  0.89542  0.65402  1.0000
  H   H1940     1.0  0.34720  0.86318  0.60778  1.0000
  H   H1941     1.0  0.30238  0.91140  0.82419  1.0000
  C   C1104     1.0  0.45318  0.97884  0.96218  1.0000
  C   C1105     1.0  0.36280  0.70458  0.62183  1.0000
  H   H1942     1.0  0.28407  0.89428  0.86101  1.0000
  H   H1943     1.0  0.33384  0.93563  0.58197  1.0000
  H   H1944     1.0  0.32166  0.90015  0.83820  1.0000
  H   H1945     1.0  0.40035  0.88075  0.83756  1.0000
  H   H1946     1.0  0.36751  0.91372  0.58805  1.0000
  H   H1947     1.0  0.36900  0.69705  0.71704  1.0000
  H   H1948     1.0  0.46543  0.97637  0.94893  1.0000
  H   H1949     1.0  0.35518  0.69837  0.75082  1.0000
  S   S255      1.0  0.36095  0.67161  0.79347  1.0000
  H   H1950     1.0  0.40347  0.84250  0.71113  1.0000
  C   C1106     1.0  0.41533  0.85065  0.71200  1.0000
  C   C1107     1.0  0.34821  0.93363  0.58089  1.0000
  H   H1951     1.0  0.29919  0.84955  0.91414  1.0000
  H   H1952     1.0  0.32269  0.89539  0.61365  1.0000
  H   H1953     1.0  0.33325  0.88517  0.66533  1.0000
  N   N61       1.0  0.40225  0.87716  0.78714  1.0000
  H   H1954     1.0  0.44621  0.90799  0.80727  1.0000
  H   H1955     1.0  0.35188  0.89815  0.78730  1.0000
  C   C1108     1.0  0.43493  0.88252  0.79820  1.0000
  C   C1109     1.0  0.40795  0.98118  0.49747  1.0000
  C   C1110     1.0  0.37414  0.85996  0.56602  1.0000
  C   C1111     1.0  0.36800  0.87935  0.56476  1.0000
  H   H1956     1.0  0.32492  0.90718  0.90777  1.0000
  H   H1957     1.0  0.33059  0.90439  0.56524  1.0000
  H   H1958     1.0  0.35733  0.92015  0.79752  1.0000
  C   C1112     1.0  0.36411  0.70587  0.73561  1.0000
  H   H1959     1.0  0.26517  0.83113  0.91482  1.0000
  H   H1960     1.0  0.37319  0.85474  0.59021  1.0000
  H   H1961     1.0  0.43873  0.87078  0.78460  1.0000
  H   H1962     1.0  0.37610  0.88632  0.58209  1.0000
  C   C1113     1.0  0.41186  0.86704  0.73146  1.0000
  C   C1114     1.0  0.30741  0.89171  0.93781  1.0000
  H   H1963     1.0  0.38377  0.86778  0.82181  1.0000
  H   H1964     1.0  0.42626  0.84280  0.72206  1.0000
  C   C1115     1.0  0.34504  0.87746  0.60448  1.0000
  C   C1116     1.0  0.35414  0.72203  0.72256  1.0000
  N   N62       1.0  0.33958  0.71885  0.69950  1.0000
  H   H1965     1.0  0.39536  0.99657  0.93881  1.0000
  H   H1966     1.0  0.38632  0.69945  0.76500  1.0000
  C   C1117     1.0  0.32622  0.73344  0.70330  1.0000
  C   C1118     1.0  0.34642  0.71936  0.66638  1.0000
  C   C1119     1.0  0.35928  0.70447  0.65706  1.0000
  C   C1120     1.0  0.31578  0.69671  0.68377  1.0000
  H   H1967     1.0  0.34588  0.91526  0.94783  1.0000
  H   H1968     1.0  0.29942  0.90784  0.88072  1.0000
  H   H1969     1.0  0.32393  0.77921  0.70454  1.0000
  H   H1970     1.0  0.48128  0.91628  0.64336  1.0000
  C   C1121     1.0  0.33326  0.75237  0.70139  1.0000
  H   H1971     1.0  0.30793  0.88700  0.96250  1.0000
  H   H1972     1.0  0.33123  0.84868  0.50099  1.0000
  C   C1122     1.0  0.49354  0.91754  0.55825  1.0000
  C   C1123     1.0  0.45241  0.99752  0.97603  1.0000
  H   H1973     1.0  0.35058  0.70216  0.60876  1.0000
  H   H1974     1.0  0.31595  0.86689  0.49784  1.0000
  H   H1975     1.0  0.31593  0.73261  0.68520  1.0000
  H   H1976     1.0  0.33542  0.71965  0.64949  1.0000
  H   H1977     1.0  0.27585  0.89232  0.91206  1.0000
  H   H1978     1.0  0.35427  0.69139  0.66322  1.0000
  H   H1979     1.0  0.45227  0.95183  0.97739  1.0000
  H   H1980     1.0  0.30519  0.70670  0.68306  1.0000
  H   H1981     1.0  0.32107  0.69486  0.65979  1.0000
  H   H1982     1.0  0.35541  0.86951  0.50884  1.0000
  H   H1983     1.0  0.35433  0.94251  0.59799  1.0000
  C   C1124     1.0  0.49552  0.90335  0.53799  1.0000
  H   H1984     1.0  0.33941  0.75494  0.67834  1.0000
  H   H1985     1.0  0.29763  0.67568  0.67606  1.0000
  H   H1986     1.0  0.35351  0.73168  0.66194  1.0000
  H   H1987     1.0  0.37089  0.94038  0.50361  1.0000
  H   H1988     1.0  0.36632  0.85162  0.55057  1.0000
  C   C1125     1.0  0.32457  0.87685  0.65118  1.0000
  H   H1989     1.0  0.36829  0.71728  0.61430  1.0000
  H   H1990     1.0  0.32806  0.86291  0.65552  1.0000
  H   H1991     1.0  0.31092  0.87916  0.65911  1.0000
  H   H1992     1.0  0.30923  0.68449  0.89898  1.0000
  H   H1993     1.0  0.36653  0.83676  0.50015  1.0000
  C   C1126     1.0  0.34187  0.87387  0.51408  1.0000
  C   C1127     1.0  0.33314  0.90986  0.95530  1.0000
  N   N63       1.0  0.34887  0.88270  0.57112  1.0000
  H   H1994     1.0  0.33973  0.69062  0.70719  1.0000
  C   C1128     1.0  0.32570  0.89882  0.92899  1.0000
  H   H1995     1.0  0.34028  0.88757  0.50596  1.0000
  H   H1996     1.0  0.32366  0.87617  0.55239  1.0000
  H   H1997     1.0  0.33804  0.85812  0.55611  1.0000
  H   H1998     1.0  0.43867  0.00013  0.98337  1.0000
  H   H1999     1.0  0.40172  0.87479  0.71915  1.0000
  C   C1129     1.0  0.39952  0.99975  0.96223  1.0000
  C   C1130     1.0  0.44919  0.89603  0.79351  1.0000
  H   H2000     1.0  0.27741  0.78345  0.93715  1.0000
  C   C1131     1.0  0.30745  0.67952  0.69363  1.0000
  H   H2001     1.0  0.36186  0.91235  0.75848  1.0000
  C   C1132     1.0  0.39794  0.87050  0.81973  1.0000
  H   H2002     1.0  0.42150  0.85402  0.82870  1.0000
  H   H2003     1.0  0.27530  0.80287  0.96057  1.0000
  H   H2004     1.0  0.30789  0.69329  0.93774  1.0000
  C   C1133     1.0  0.33047  0.70189  0.70668  1.0000
  C   C1134     1.0  0.37956  0.71128  0.75564  1.0000
  C   C1135     1.0  0.32874  0.83642  0.93820  1.0000
  H   H2005     1.0  0.40420  0.99152  0.56374  1.0000
  H   H2006     1.0  0.38904  0.71883  0.74150  1.0000
  C   C1136     1.0  0.26919  0.79021  0.95497  1.0000
  H   H2007     1.0  0.48441  0.00161  0.96762  1.0000
  C   C1137     1.0  0.25921  0.67377  0.88133  1.0000
  H   H2008     1.0  0.34896  0.72872  0.74382  1.0000
  H   H2009     1.0  0.31942  0.73212  0.72636  1.0000
  H   H2010     1.0  0.34301  0.75481  0.71991  1.0000
  H   H2011     1.0  0.32417  0.92091  0.96104  1.0000
  H   H2012     1.0  0.36385  0.73116  0.71244  1.0000
  C   C1138     1.0  0.48362  0.90430  0.65761  1.0000
  H   H2013     1.0  0.33143  0.86345  0.94852  1.0000
  C   C1139     1.0  0.28036  0.87886  0.91816  1.0000
  H   H2014     1.0  0.48411  0.90786  0.68274  1.0000
  H   H2015     1.0  0.26876  0.78216  0.97665  1.0000
  H   H2016     1.0  0.44196  0.97694  0.94623  1.0000
  H   H2017     1.0  0.50254  0.88330  0.66196  1.0000
  H   H2018     1.0  0.26082  0.68602  0.89340  1.0000
  C   C1140     1.0  0.50059  0.89522  0.64746  1.0000
  H   H2019     1.0  0.35385  0.92512  0.49581  1.0000
  H   H2020     1.0  0.30080  0.85753  0.95299  1.0000
  S   S256      1.0  0.39786  0.88500  0.99162  1.0000
  H   H2021     1.0  0.30075  0.68101  0.71657  1.0000
  H   H2022     1.0  0.33526  0.88832  0.92391  1.0000
  H   H2023     1.0  0.39791  0.99123  0.60431  1.0000
  C   C1141     1.0  0.40700  0.99710  0.58705  1.0000
  C   C1142     1.0  0.40101  0.98635  0.98491  1.0000
  C   C1143     1.0  0.31125  0.68139  0.92411  1.0000
  H   H2024     1.0  0.32520  0.67800  0.92817  1.0000
  H   H2025     1.0  0.28464  0.67467  0.85910  1.0000
  H   H2026     1.0  0.39786  0.97306  0.97894  1.0000
  H   H2027     1.0  0.36307  0.67415  0.98904  1.0000
  Fe  Fe129     1.0  0.66621  0.32135  0.17241  1.0000
  H   H2028     1.0  0.50970  0.06480  0.38953  1.0000
  S   S257      1.0  0.65426  0.29406  0.17069  1.0000
  H   H2029     1.0  0.58436  0.16546  0.46697  1.0000
  Fe  Fe130     1.0  0.66150  0.16483  0.13947  1.0000
  S   S258      1.0  0.67091  0.14134  0.16620  1.0000
  S   S259      1.0  0.64408  0.16467  0.09626  1.0000
  Fe  Fe131     1.0  0.67873  0.19047  0.18499  1.0000
  S   S260      1.0  0.68889  0.16838  0.21552  1.0000
  S   S261      1.0  0.68822  0.21827  0.19420  1.0000
  Fe  Fe132     1.0  0.69648  0.15566  0.16971  1.0000
  S   S262      1.0  0.72286  0.14212  0.16048  1.0000
  Fe  Fe133     1.0  0.66246  0.15586  0.20985  1.0000
  S   S263      1.0  0.64162  0.14425  0.24326  1.0000
  S   S264      1.0  0.68749  0.17803  0.13974  1.0000
  S   S265      1.0  0.65195  0.17906  0.18244  1.0000
  Fe  Fe134     1.0  0.57075  0.08268  0.42649  1.0000
  S   S266      1.0  0.59288  0.06854  0.40146  1.0000
  S   S267      1.0  0.54359  0.07690  0.40689  1.0000
  Fe  Fe135     1.0  0.59565  0.09691  0.47560  1.0000
  S   S268      1.0  0.61885  0.08364  0.45397  1.0000
  H   H2030     1.0  0.55653  0.02998  0.99775  1.0000
  Fe  Fe136     1.0  0.60833  0.09311  0.40737  1.0000
  S   S269      1.0  0.62985  0.10381  0.37446  1.0000
  Fe  Fe137     1.0  0.60161  0.06026  0.44961  1.0000
  S   S270      1.0  0.61240  0.03279  0.45987  1.0000
  S   S271      1.0  0.58574  0.10789  0.42963  1.0000
  S   S272      1.0  0.57894  0.07292  0.47410  1.0000
  C   C1144     1.0  0.52221  0.08359  0.41903  1.0000
  H   H2031     1.0  0.59619  0.10341  0.06241  1.0000
  H   H2032     1.0  0.67898  0.28814  0.07691  1.0000
  H   H2033     1.0  0.53030  0.10366  0.45057  1.0000
  H   H2034     1.0  0.58166  0.10047  0.22716  1.0000
  H   H2035     1.0  0.54720  0.01705  0.40205  1.0000
  H   H2036     1.0  0.63743  0.12864  0.47135  1.0000
  H   H2037     1.0  0.60769  0.14270  0.42850  1.0000
  H   H2038     1.0  0.50430  0.03029  0.48739  1.0000
  H   H2039     1.0  0.65431  0.09718  0.45290  1.0000
  C   C1145     1.0  0.63154  0.11539  0.03980  1.0000
  C   C1146     1.0  0.64524  0.11515  0.06156  1.0000
  C   C1147     1.0  0.64924  0.13015  0.07891  1.0000
  C   C1148     1.0  0.63958  0.14558  0.07464  1.0000
  C   C1149     1.0  0.62603  0.14592  0.05256  1.0000
  C   C1150     1.0  0.62194  0.13087  0.03531  1.0000
  H   H2040     1.0  0.65279  0.10326  0.06508  1.0000
  H   H2041     1.0  0.65983  0.12975  0.09555  1.0000
  H   H2042     1.0  0.61849  0.15782  0.04908  1.0000
  H   H2043     1.0  0.51998  0.05793  0.47418  1.0000
  C   C1151     1.0  0.63878  0.13317  0.28007  1.0000
  C   C1152     1.0  0.65279  0.12771  0.29881  1.0000
  C   C1153     1.0  0.64975  0.11879  0.32741  1.0000
  C   C1154     1.0  0.63270  0.11510  0.33784  1.0000
  C   C1155     1.0  0.61868  0.12072  0.31927  1.0000
  C   C1156     1.0  0.62172  0.12968  0.29071  1.0000
  H   H2044     1.0  0.66598  0.13026  0.29118  1.0000
  H   H2045     1.0  0.66074  0.11460  0.34146  1.0000
  H   H2046     1.0  0.60548  0.11815  0.32685  1.0000
  H   H2047     1.0  0.61074  0.13398  0.27675  1.0000
  H   H2048     1.0  0.63880  0.17519  0.45263  1.0000
  C   C1157     1.0  0.73980  0.16893  0.12881  1.0000
  C   C1158     1.0  0.74049  0.15162  0.13940  1.0000
  H   H2049     1.0  0.57633  0.01740  0.37781  1.0000
  H   H2050     1.0  0.72826  0.17683  0.13319  1.0000
  H   H2051     1.0  0.68418  0.12380  0.00535  1.0000
  C   C1159     1.0  0.66397  0.27325  0.17868  1.0000
  C   C1160     1.0  0.65326  0.25849  0.18015  1.0000
  C   C1161     1.0  0.66037  0.24166  0.18564  1.0000
  C   C1162     1.0  0.67836  0.23931  0.18933  1.0000
  C   C1163     1.0  0.68907  0.25408  0.18815  1.0000
  C   C1164     1.0  0.68195  0.27095  0.18284  1.0000
  H   H2052     1.0  0.63932  0.26014  0.17728  1.0000
  H   H2053     1.0  0.65192  0.23053  0.18744  1.0000
  H   H2054     1.0  0.70300  0.25246  0.19118  1.0000
  H   H2055     1.0  0.69037  0.28215  0.18187  1.0000
  H   H2056     1.0  0.66102  0.08021  0.16595  1.0000
  C   C1165     1.0  0.59410  0.01749  0.00899  1.0000
  S   S273      1.0  0.68228  0.33207  0.13253  1.0000
  C   C1166     1.0  0.74061  0.33441  0.11041  1.0000
  H   H2057     1.0  0.65031  0.33647  0.42084  1.0000
  C   C1167     1.0  0.75315  0.33329  0.08613  1.0000
  H   H2058     1.0  0.66762  0.13423  0.43971  1.0000
  H   H2059     1.0  0.55057  0.04433  0.43409  1.0000
  H   H2060     1.0  0.59848  0.00812  0.05611  1.0000
  H   H2061     1.0  0.57909  0.09723  0.08941  1.0000
  H   H2062     1.0  0.59501  0.03112  0.01518  1.0000
  N   N64       1.0  0.63474  0.14895  0.43601  1.0000
  C   C1168     1.0  0.63916  0.13045  0.44585  1.0000
  C   C1169     1.0  0.61553  0.15235  0.44170  1.0000
  C   C1170     1.0  0.63783  0.15019  0.40108  1.0000
  C   C1171     1.0  0.64575  0.16231  0.45240  1.0000
  H   H2063     1.0  0.65274  0.33208  0.47862  1.0000
  C   C1172     1.0  0.65780  0.12389  0.43683  1.0000
  C   C1173     1.0  0.63294  0.16784  0.38515  1.0000
  H   H2064     1.0  0.66389  0.11146  0.48160  1.0000
  H   H2065     1.0  0.59639  0.17138  0.16745  1.0000
  C   C1174     1.0  0.63950  0.16835  0.35131  1.0000
  H   H2066     1.0  0.62979  0.12121  0.43529  1.0000
  C   C1175     1.0  0.60503  0.01566  0.48475  1.0000
  H   H2067     1.0  0.60116  0.08744  0.23463  1.0000
  H   H2068     1.0  0.63042  0.13989  0.38881  1.0000
  H   H2069     1.0  0.65180  0.14766  0.39539  1.0000
  H   H2070     1.0  0.65802  0.16465  0.43904  1.0000
  H   H2071     1.0  0.61155  0.16543  0.43273  1.0000
  H   H2072     1.0  0.65806  0.11988  0.41187  1.0000
  H   H2073     1.0  0.55097  0.01884  0.05189  1.0000
  H   H2074     1.0  0.63863  0.17899  0.39778  1.0000
  H   H2075     1.0  0.61856  0.16964  0.38421  1.0000
  H   H2076     1.0  0.58347  0.14182  0.46734  1.0000
  C   C1176     1.0  0.65154  0.15796  0.48650  1.0000
  C   C1177     1.0  0.50566  0.02206  0.46626  1.0000
  H   H2077     1.0  0.73927  0.24934  0.05089  1.0000
  C   C1178     1.0  0.58941  0.15338  0.47843  1.0000
  H   H2078     1.0  0.63562  0.18094  0.34018  1.0000
  H   H2079     1.0  0.65394  0.16707  0.35034  1.0000
  H   H2080     1.0  0.63372  0.15760  0.33761  1.0000
  H   H2081     1.0  0.66313  0.27843  0.05172  1.0000
  H   H2082     1.0  0.64013  0.20879  0.05694  1.0000
  C   C1179     1.0  0.54038  0.01829  0.03432  1.0000
  C   C1180     1.0  0.54409  0.00741  0.47792  1.0000
  C   C1181     1.0  0.66346  0.10808  0.45639  1.0000
  H   H2083     1.0  0.52103  0.03838  0.43511  1.0000
  H   H2084     1.0  0.73076  0.25272  0.08986  1.0000
  H   H2085     1.0  0.59204  0.08071  0.06980  1.0000
  H   H2086     1.0  0.56328  0.00617  0.42610  1.0000
  H   H2087     1.0  0.56609  0.03363  0.45843  1.0000
  H   H2088     1.0  0.66633  0.19515  0.00776  1.0000
  H   H2089     1.0  0.61352  0.14027  0.48850  1.0000
  C   C1182     1.0  0.55857  0.01907  0.41743  1.0000
  H   H2090     1.0  0.61444  0.16380  0.48854  1.0000
  H   H2091     1.0  0.65548  0.18199  0.03706  1.0000
  H   H2092     1.0  0.58494  0.02878  0.41093  1.0000
  H   H2093     1.0  0.61214  0.16184  0.19395  1.0000
  H   H2094     1.0  0.67667  0.10363  0.44892  1.0000
  H   H2095     1.0  0.64486  0.33735  0.36722  1.0000
  H   H2096     1.0  0.66519  0.32498  0.32691  1.0000
  C   C1183     1.0  0.55388  0.03154  0.44494  1.0000
  C   C1184     1.0  0.73941  0.25815  0.07145  1.0000
  H   H2097     1.0  0.61879  0.16913  0.15527  1.0000
  H   H2098     1.0  0.62285  0.20534  0.15144  1.0000
  C   C1185     1.0  0.52269  0.02573  0.44790  1.0000
  H   H2099     1.0  0.52784  0.02161  0.04601  1.0000
  N   N65       1.0  0.53938  0.02565  0.46650  1.0000
  H   H2100     1.0  0.73414  0.27121  0.06460  1.0000
  H   H2101     1.0  0.59636  0.10640  0.25796  1.0000
  H   H2102     1.0  0.61133  0.13122  0.01872  1.0000
  H   H2103     1.0  0.74993  0.32672  0.06462  1.0000
  S   S274      1.0  0.62716  0.09600  0.01897  1.0000
  N   N66       1.0  0.66830  0.22740  0.08717  1.0000
  C   C1186     1.0  0.67116  0.24347  0.06729  1.0000
  C   C1187     1.0  0.66827  0.21154  0.06632  1.0000
  C   C1188     1.0  0.65113  0.22960  0.10423  1.0000
  C   C1189     1.0  0.68263  0.22513  0.11089  1.0000
  C   C1190     1.0  0.70138  0.22298  0.09745  1.0000
  C   C1191     1.0  0.67518  0.26053  0.08537  1.0000
  C   C1192     1.0  0.64498  0.21362  0.12359  1.0000
  C   C1193     1.0  0.65255  0.21013  0.04380  1.0000
  C   C1194     1.0  0.60930  0.15227  0.47616  1.0000
  C   C1195     1.0  0.71490  0.22237  0.12361  1.0000
  C   C1196     1.0  0.67593  0.27625  0.06329  1.0000
  C   C1197     1.0  0.62663  0.21669  0.13674  1.0000
  H   H2104     1.0  0.65943  0.24628  0.05278  1.0000
  H   H2105     1.0  0.68193  0.24123  0.05016  1.0000
  H   H2106     1.0  0.68019  0.21123  0.05139  1.0000
  H   H2107     1.0  0.66903  0.19931  0.08054  1.0000
  H   H2108     1.0  0.64056  0.23338  0.08767  1.0000
  H   H2109     1.0  0.65174  0.24060  0.12099  1.0000
  H   H2110     1.0  0.68244  0.23614  0.12766  1.0000
  H   H2111     1.0  0.68037  0.21343  0.12557  1.0000
  H   H2112     1.0  0.70469  0.23390  0.08152  1.0000
  H   H2113     1.0  0.70270  0.21054  0.08437  1.0000
  H   H2114     1.0  0.66510  0.26346  0.10336  1.0000
  H   H2115     1.0  0.68801  0.25950  0.09723  1.0000
  H   H2116     1.0  0.65381  0.21118  0.14361  1.0000
  H   H2117     1.0  0.64465  0.20161  0.10940  1.0000
  H   H2118     1.0  0.55854  0.00580  0.47976  1.0000
  H   H2119     1.0  0.65149  0.22183  0.02850  1.0000
  H   H2120     1.0  0.69867  0.32964  0.05316  1.0000
  C   C1198     1.0  0.51931  0.09708  0.44046  1.0000
  C   C1199     1.0  0.68663  0.15014  0.02060  1.0000
  H   H2121     1.0  0.72819  0.22083  0.11346  1.0000
  H   H2122     1.0  0.71433  0.23459  0.13751  1.0000
  H   H2123     1.0  0.71254  0.21110  0.13946  1.0000
  H   H2124     1.0  0.68624  0.27429  0.04525  1.0000
  H   H2125     1.0  0.50457  0.00518  0.02441  1.0000
  S   S275      1.0  0.68390  0.33147  0.21004  1.0000
  H   H2126     1.0  0.62613  0.22860  0.15146  1.0000
  H   H2127     1.0  0.61706  0.21811  0.11744  1.0000
  N   N67       1.0  0.61653  0.11327  0.15286  1.0000
  C   C1200     1.0  0.62029  0.13226  0.15892  1.0000
  C   C1201     1.0  0.63362  0.10326  0.15091  1.0000
  C   C1202     1.0  0.60786  0.11225  0.12119  1.0000
  C   C1203     1.0  0.60458  0.10533  0.17717  1.0000
  C   C1204     1.0  0.60589  0.11231  0.21122  1.0000
  C   C1205     1.0  0.60441  0.14494  0.15556  1.0000
  C   C1206     1.0  0.60548  0.09369  0.10758  1.0000
  C   C1207     1.0  0.64456  0.10209  0.18119  1.0000
  C   C1208     1.0  0.66245  0.09371  0.17483  1.0000
  C   C1209     1.0  0.59560  0.10092  0.23401  1.0000
  C   C1210     1.0  0.60823  0.16290  0.16899  1.0000
  C   C1211     1.0  0.59238  0.09384  0.08071  1.0000
  H   H2128     1.0  0.63052  0.13698  0.14244  1.0000
  H   H2129     1.0  0.62600  0.13412  0.18242  1.0000
  H   H2130     1.0  0.63147  0.08945  0.14431  1.0000
  H   H2131     1.0  0.64192  0.10888  0.13203  1.0000
  H   H2132     1.0  0.61531  0.11987  0.10349  1.0000
  H   H2133     1.0  0.59466  0.11847  0.12207  1.0000
  H   H2134     1.0  0.59064  0.10724  0.17050  1.0000
  H   H2135     1.0  0.60659  0.09090  0.17796  1.0000
  H   H2136     1.0  0.60043  0.12577  0.21278  1.0000
  H   H2137     1.0  0.61946  0.11280  0.21969  1.0000
  H   H2138     1.0  0.60126  0.14689  0.13041  1.0000
  H   H2139     1.0  0.59268  0.13973  0.16745  1.0000
  H   H2140     1.0  0.60083  0.08442  0.12570  1.0000
  H   H2141     1.0  0.61811  0.08872  0.09797  1.0000
  H   H2142     1.0  0.64673  0.11508  0.19156  1.0000
  H   H2143     1.0  0.63791  0.09369  0.19866  1.0000
  H   H2144     1.0  0.66986  0.10151  0.15743  1.0000
  H   H2145     1.0  0.67005  0.09316  0.19688  1.0000
  C   C1212     1.0  0.53302  0.05734  0.48529  1.0000
  H   H2146     1.0  0.68593  0.16370  0.01136  1.0000
  H   H2147     1.0  0.56860  0.03919  0.38629  1.0000
  H   H2148     1.0  0.52332  0.01571  0.42922  1.0000
  H   H2149     1.0  0.70004  0.14759  0.02939  1.0000
  H   H2150     1.0  0.64732  0.04990  0.47316  1.0000
  H   H2151     1.0  0.65467  0.13600  0.00327  1.0000
  C   C1213     1.0  0.57300  0.02663  0.39695  1.0000
  H   H2152     1.0  0.66161  0.14741  0.48658  1.0000
  C   C1214     1.0  0.50766  0.07524  0.40615  1.0000
  C   C1215     1.0  0.54386  0.03246  0.00982  1.0000
  H   H2153     1.0  0.66276  0.06735  0.47347  1.0000
  H   H2154     1.0  0.72802  0.32844  0.10776  1.0000
  H   H2155     1.0  0.50533  0.00810  0.47317  1.0000
  H   H2156     1.0  0.54254  0.06334  0.46923  1.0000
  H   H2157     1.0  0.54448  0.04541  0.02131  1.0000
  C   C1216     1.0  0.65451  0.19411  0.02274  1.0000
  H   H2158     1.0  0.67738  0.14886  0.04058  1.0000
  H   H2159     1.0  0.64292  0.19313  0.00742  1.0000
  C   C1217     1.0  0.68238  0.13702  0.99495  1.0000
  H   H2160     1.0  0.75350  0.18956  0.10504  1.0000
  C   C1218     1.0  0.59606  0.00439  0.03216  1.0000
  H   H2161     1.0  0.67095  0.17847  0.48878  1.0000
  C   C1219     1.0  0.65696  0.05678  0.48780  1.0000
  Fe  Fe138     1.0  0.66888  0.31727  0.68809  1.0000
  H   H2162     1.0  0.68160  0.20623  0.59211  1.0000
  S   S276      1.0  0.67236  0.28992  0.70974  1.0000
  C   C1220     1.0  0.53358  0.10330  0.85694  1.0000
  Fe  Fe139     1.0  0.66669  0.14933  0.64454  1.0000
  S   S277      1.0  0.68132  0.13969  0.68747  1.0000
  S   S278      1.0  0.66315  0.13188  0.60165  1.0000
  Fe  Fe140     1.0  0.66559  0.18735  0.66821  1.0000
  S   S279      1.0  0.67998  0.18016  0.71193  1.0000
  S   S280      1.0  0.65641  0.21468  0.65282  1.0000
  Fe  Fe141     1.0  0.69754  0.16385  0.68055  1.0000
  S   S281      1.0  0.72707  0.16720  0.68518  1.0000
  Fe  Fe142     1.0  0.66244  0.15665  0.71543  1.0000
  S   S282      1.0  0.64777  0.15363  0.76295  1.0000
  S   S283      1.0  0.68400  0.17247  0.63681  1.0000
  S   S284      1.0  0.64700  0.16482  0.67251  1.0000
  Fe  Fe143     1.0  0.57208  0.09338  0.94872  1.0000
  S   S285      1.0  0.57982  0.07520  0.90975  1.0000
  S   S286      1.0  0.54547  0.10683  0.95442  1.0000
  H   H2163     1.0  0.71636  0.26641  0.68047  1.0000
  S   S287      1.0  0.61756  0.07179  0.94311  1.0000
  S   S288      1.0  0.67846  0.32621  0.64088  1.0000
  Fe  Fe144     1.0  0.60518  0.09007  0.90768  1.0000
  S   S289      1.0  0.62110  0.09583  0.86243  1.0000
  Fe  Fe145     1.0  0.59173  0.05857  0.94837  1.0000
  S   S290      1.0  0.58774  0.02886  0.94776  1.0000
  S   S291      1.0  0.59660  0.10945  0.94435  1.0000
  C   C1221     1.0  0.64263  0.31841  0.78382  1.0000
  C   C1222     1.0  0.52547  0.09596  0.94874  1.0000
  H   H2164     1.0  0.66646  0.10009  0.91282  1.0000
  C   C1223     1.0  0.52478  0.08003  0.93300  1.0000
  H   H2165     1.0  0.67627  0.07696  0.94886  1.0000
  H   H2166     1.0  0.53673  0.07382  0.92489  1.0000
  H   H2167     1.0  0.54387  0.00914  0.52914  1.0000
  H   H2168     1.0  0.58006  0.08055  0.54278  1.0000
  H   H2169     1.0  0.64627  0.32549  0.90833  1.0000
  H   H2170     1.0  0.50818  0.06036  0.91379  1.0000
  C   C1224     1.0  0.71815  0.23178  0.68018  1.0000
  C   C1225     1.0  0.61510  0.11812  0.54269  1.0000
  C   C1226     1.0  0.61301  0.12766  0.57053  1.0000
  C   C1227     1.0  0.62756  0.13230  0.58862  1.0000
  C   C1228     1.0  0.64439  0.12740  0.57901  1.0000
  C   C1229     1.0  0.64648  0.11806  0.55091  1.0000
  C   C1230     1.0  0.63193  0.11342  0.53286  1.0000
  H   H2171     1.0  0.60004  0.13141  0.57826  1.0000
  H   H2172     1.0  0.62575  0.13946  0.61017  1.0000
  H   H2173     1.0  0.65944  0.11423  0.54327  1.0000
  H   H2174     1.0  0.60979  0.01561  0.62192  1.0000
  C   C1231     1.0  0.64061  0.13725  0.79033  1.0000
  C   C1232     1.0  0.63103  0.14246  0.81712  1.0000
  C   C1233     1.0  0.62485  0.13010  0.83920  1.0000
  C   C1234     1.0  0.62830  0.11222  0.83513  1.0000
  C   C1235     1.0  0.63801  0.10705  0.80852  1.0000
  C   C1236     1.0  0.64404  0.11939  0.78628  1.0000
  H   H2175     1.0  0.62835  0.15618  0.82086  1.0000
  H   H2176     1.0  0.61746  0.13439  0.85940  1.0000
  H   H2177     1.0  0.64084  0.09332  0.80498  1.0000
  H   H2178     1.0  0.65138  0.11504  0.76602  1.0000
  H   H2179     1.0  0.51191  0.08592  0.85850  1.0000
  C   C1237     1.0  0.74015  0.15483  0.62815  1.0000
  C   C1238     1.0  0.74346  0.16373  0.65597  1.0000
  H   H2180     1.0  0.64915  0.14501  0.89158  1.0000
  H   H2181     1.0  0.72716  0.15016  0.62362  1.0000
  H   H2182     1.0  0.65460  0.07556  0.96557  1.0000
  C   C1239     1.0  0.66829  0.26915  0.69286  1.0000
  C   C1240     1.0  0.65966  0.26740  0.66433  1.0000
  C   C1241     1.0  0.65621  0.25064  0.65240  1.0000
  C   C1242     1.0  0.66154  0.23544  0.66857  1.0000
  C   C1243     1.0  0.67048  0.23718  0.69678  1.0000
  C   C1244     1.0  0.67370  0.25393  0.70894  1.0000
  H   H2183     1.0  0.65539  0.27895  0.65167  1.0000
  H   H2184     1.0  0.64930  0.24947  0.63053  1.0000
  H   H2185     1.0  0.67477  0.22563  0.70936  1.0000
  H   H2186     1.0  0.68043  0.25508  0.73098  1.0000
  C   C1245     1.0  0.67306  0.13897  0.86766  1.0000
  H   H2187     1.0  0.72656  0.20409  0.68283  1.0000
  N   N68       1.0  0.62902  0.05629  0.56480  1.0000
  C   C1246     1.0  0.63725  0.07117  0.58199  1.0000
  C   C1247     1.0  0.61175  0.06254  0.55170  1.0000
  C   C1248     1.0  0.62674  0.04128  0.58737  1.0000
  C   C1249     1.0  0.64032  0.05008  0.53789  1.0000
  H   H2188     1.0  0.69185  0.13866  0.97548  1.0000
  C   C1250     1.0  0.65536  0.06708  0.59658  1.0000
  H   H2189     1.0  0.54212  0.09318  0.84598  1.0000
  C   C1251     1.0  0.59773  0.06815  0.57618  1.0000
  C   C1252     1.0  0.57979  0.07031  0.56119  1.0000
  Fe  Fe146     1.0  0.60778  0.09063  0.97977  1.0000
  C   C1253     1.0  0.66400  0.08371  0.60800  1.0000
  C   C1254     1.0  0.70933  0.28467  0.64454  1.0000
  H   H2190     1.0  0.62877  0.07555  0.60172  1.0000
  H   H2191     1.0  0.63824  0.08283  0.56656  1.0000
  H   H2192     1.0  0.61357  0.07409  0.53618  1.0000
  H   H2193     1.0  0.60613  0.05246  0.53614  1.0000
  H   H2194     1.0  0.62107  0.04587  0.60995  1.0000
  H   H2195     1.0  0.63969  0.03558  0.59379  1.0000
  H   H2196     1.0  0.65143  0.04184  0.54633  1.0000
  H   H2197     1.0  0.63279  0.04131  0.52239  1.0000
  C   C1255     1.0  0.61564  0.02596  0.57541  1.0000
  C   C1256     1.0  0.71897  0.21244  0.72873  1.0000
  H   H2198     1.0  0.65387  0.05824  0.61707  1.0000
  H   H2199     1.0  0.66439  0.06070  0.57969  1.0000
  H   H2200     1.0  0.52908  0.03395  0.51166  1.0000
  H   H2201     1.0  0.69368  0.22114  0.63992  1.0000
  H   H2202     1.0  0.59640  0.05848  0.59534  1.0000
  H   H2203     1.0  0.60118  0.08091  0.58656  1.0000
  H   H2204     1.0  0.57557  0.05781  0.55075  1.0000
  H   H2205     1.0  0.57007  0.07436  0.57919  1.0000
  N   N69       1.0  0.65838  0.12964  0.95428  1.0000
  C   C1257     1.0  0.59090  0.01291  0.97790  1.0000
  H   H2206     1.0  0.63784  0.07383  0.50880  1.0000
  H   H2207     1.0  0.63859  0.31051  0.80431  1.0000
  H   H2208     1.0  0.67633  0.08037  0.62030  1.0000
  H   H2209     1.0  0.66718  0.09236  0.58790  1.0000
  H   H2210     1.0  0.65530  0.09095  0.62447  1.0000
  H   H2211     1.0  0.73214  0.21702  0.73522  1.0000
  H   H2212     1.0  0.73943  0.20479  0.62568  1.0000
  H   H2213     1.0  0.62103  0.02067  0.55320  1.0000
  N   N70       1.0  0.61099  0.19360  0.72488  1.0000
  C   C1258     1.0  0.60681  0.17436  0.72568  1.0000
  C   C1259     1.0  0.61504  0.19956  0.69179  1.0000
  C   C1260     1.0  0.62725  0.19600  0.74421  1.0000
  C   C1261     1.0  0.59656  0.20461  0.73902  1.0000
  C   C1262     1.0  0.57833  0.20289  0.72412  1.0000
  C   C1263     1.0  0.60136  0.16670  0.75792  1.0000
  C   C1264     1.0  0.63493  0.21467  0.74440  1.0000
  C   C1265     1.0  0.60518  0.19072  0.66458  1.0000
  C   C1266     1.0  0.60901  0.19969  0.63333  1.0000
  C   C1267     1.0  0.56436  0.21216  0.74388  1.0000
  C   C1268     1.0  0.59793  0.14713  0.75555  1.0000
  C   C1269     1.0  0.65156  0.21517  0.76394  1.0000
  H   H2214     1.0  0.61825  0.16659  0.71710  1.0000
  H   H2215     1.0  0.59606  0.17122  0.70954  1.0000
  H   H2216     1.0  0.61315  0.21396  0.68952  1.0000
  H   H2217     1.0  0.62908  0.19724  0.68625  1.0000
  H   H2218     1.0  0.63781  0.18697  0.73587  1.0000
  H   H2219     1.0  0.62491  0.19250  0.76910  1.0000
  H   H2220     1.0  0.59548  0.20197  0.76459  1.0000
  H   H2221     1.0  0.59970  0.21870  0.73716  1.0000
  H   H2222     1.0  0.57443  0.18910  0.72179  1.0000
  H   H2223     1.0  0.57825  0.20923  0.70072  1.0000
  H   H2224     1.0  0.61169  0.16830  0.77560  1.0000
  H   H2225     1.0  0.58923  0.17308  0.76667  1.0000
  H   H2226     1.0  0.62561  0.22421  0.75482  1.0000
  H   H2227     1.0  0.63829  0.21915  0.72042  1.0000
  H   H2228     1.0  0.60953  0.17687  0.66232  1.0000
  H   H2229     1.0  0.59091  0.19090  0.66823  1.0000
  H   H2230     1.0  0.62319  0.19891  0.62787  1.0000
  H   H2231     1.0  0.60187  0.19309  0.61431  1.0000
  H   H2232     1.0  0.60480  0.21363  0.63394  1.0000
  H   H2233     1.0  0.55149  0.21114  0.73227  1.0000
  H   H2234     1.0  0.56343  0.20601  0.76742  1.0000
  H   H2235     1.0  0.56742  0.22621  0.74649  1.0000
  H   H2236     1.0  0.58696  0.14465  0.73937  1.0000
  H   H2237     1.0  0.60978  0.14004  0.74707  1.0000
  H   H2238     1.0  0.59453  0.14184  0.77902  1.0000
  H   H2239     1.0  0.65679  0.22862  0.76381  1.0000
  H   H2240     1.0  0.64882  0.21128  0.78853  1.0000
  H   H2241     1.0  0.66166  0.20621  0.75407  1.0000
  H   H2242     1.0  0.71818  0.22136  0.58200  1.0000
  H   H2243     1.0  0.65802  0.07210  0.52953  1.0000
  H   H2244     1.0  0.67147  0.15071  0.92977  1.0000
  H   H2245     1.0  0.60934  0.16650  0.93718  1.0000
  H   H2246     1.0  0.71180  0.20698  0.63506  1.0000
  H   H2247     1.0  0.71539  0.27799  0.78245  1.0000
  H   H2248     1.0  0.68164  0.13005  0.92540  1.0000
  H   H2249     1.0  0.72987  0.23785  0.69065  1.0000
  H   H2250     1.0  0.61625  0.32002  0.76564  1.0000
  C   C1270     1.0  0.70328  0.28463  0.77422  1.0000
  C   C1271     1.0  0.70524  0.22173  0.59370  1.0000
  C   C1272     1.0  0.61332  0.15252  0.93855  1.0000
  C   C1273     1.0  0.65995  0.13529  0.89384  1.0000
  C   C1274     1.0  0.70708  0.22044  0.62976  1.0000
  H   H2251     1.0  0.69507  0.28426  0.64919  1.0000
  H   H2252     1.0  0.67703  0.10872  0.96369  1.0000
  H   H2253     1.0  0.71475  0.29574  0.65789  1.0000
  H   H2254     1.0  0.71183  0.25469  0.61192  1.0000
  H   H2255     1.0  0.52830  0.08230  0.50768  1.0000
  C   C1275     1.0  0.69717  0.29810  0.79831  1.0000
  H   H2256     1.0  0.60195  0.03025  0.57143  1.0000
  C   C1276     1.0  0.50979  0.10392  0.95889  1.0000
  H   H2257     1.0  0.66751  0.04746  0.49467  1.0000
  H   H2258     1.0  0.58525  0.03071  0.50873  1.0000
  H   H2259     1.0  0.65837  0.06974  0.92526  1.0000
  C   C1277     1.0  0.65256  0.31632  0.89151  1.0000
  H   H2260     1.0  0.71157  0.28712  0.61922  1.0000
  H   H2261     1.0  0.65433  0.12234  0.88939  1.0000
  C   C1278     1.0  0.63889  0.13177  0.95041  1.0000
  C   C1279     1.0  0.74687  0.21584  0.63520  1.0000
  H   H2262     1.0  0.64636  0.30949  0.76440  1.0000
  H   H2263     1.0  0.64037  0.15948  0.93593  1.0000
  H   H2264     1.0  0.67856  0.15222  0.87015  1.0000
  H   H2265     1.0  0.66646  0.13825  0.84463  1.0000
  C   C1280     1.0  0.63201  0.15096  0.95052  1.0000
  N   N71       1.0  0.71835  0.23400  0.64494  1.0000
  N   N72       1.0  0.67336  0.32205  0.80821  1.0000
  H   H2266     1.0  0.70794  0.30743  0.80143  1.0000
  H   H2267     1.0  0.60427  0.14587  0.95491  1.0000
  H   H2268     1.0  0.63195  0.12475  0.96957  1.0000
  H   H2269     1.0  0.51404  0.01091  0.95035  1.0000
  H   H2270     1.0  0.63430  0.12541  0.92875  1.0000
  H   H2271     1.0  0.68381  0.12908  0.86791  1.0000
  H   H2272     1.0  0.70608  0.29106  0.75140  1.0000
  H   H2273     1.0  0.63198  0.15612  0.97479  1.0000
  H   H2274     1.0  0.69314  0.27463  0.77074  1.0000
  H   H2275     1.0  0.68244  0.31253  0.76336  1.0000
  H   H2276     1.0  0.73236  0.26882  0.64986  1.0000
  C   C1281     1.0  0.61529  0.01104  0.59926  1.0000
  H   H2277     1.0  0.68969  0.32873  0.53736  1.0000
  C   C1282     1.0  0.71822  0.26758  0.65479  1.0000
  H   H2278     1.0  0.53330  0.03296  0.99213  1.0000
  C   C1283     1.0  0.62668  0.32898  0.77314  1.0000
  H   H2279     1.0  0.69821  0.23392  0.58689  1.0000
  C   C1284     1.0  0.66337  0.13957  0.98336  1.0000
  H   H2280     1.0  0.66388  0.17013  0.52621  1.0000
  C   C1285     1.0  0.68011  0.30748  0.78747  1.0000
  C   C1286     1.0  0.66826  0.31416  0.83929  1.0000
  S   S292      1.0  0.64410  0.33358  0.68714  1.0000
  C   C1287     1.0  0.71671  0.21294  0.69326  1.0000
  C   C1288     1.0  0.66214  0.07886  0.94411  1.0000
  S   S293      1.0  0.58268  0.07616  0.98729  1.0000
  H   H2281     1.0  0.70362  0.20769  0.68809  1.0000
  C   C1289     1.0  0.65949  0.17381  0.50228  1.0000
  H   H2282     1.0  0.69679  0.33079  0.83135  1.0000
  C   C1290     1.0  0.66859  0.13662  0.92664  1.0000
  C   C1291     1.0  0.65825  0.09766  0.93378  1.0000
  H   H2283     1.0  0.73708  0.23769  0.60745  1.0000
  H   H2284     1.0  0.51274  0.09963  0.82449  1.0000
  H   H2285     1.0  0.74494  0.24314  0.64470  1.0000
  H   H2286     1.0  0.63008  0.33756  0.75308  1.0000
  H   H2287     1.0  0.67023  0.29709  0.78499  1.0000
  H   H2288     1.0  0.65994  0.30256  0.83577  1.0000
  H   H2289     1.0  0.52222  0.06376  0.53122  1.0000
  S   S294      1.0  0.59635  0.11245  0.52099  1.0000
  H   H2290     1.0  0.64430  0.09855  0.92730  1.0000
  C   C1292     1.0  0.64808  0.06457  0.51674  1.0000
  H   H2291     1.0  0.61220  0.14675  0.91486  1.0000
  H   H2292     1.0  0.69504  0.29107  0.82072  1.0000
  H   H2293     1.0  0.65636  0.10611  0.98202  1.0000
  H   H2294     1.0  0.66142  0.15385  0.97968  1.0000
  C   C1293     1.0  0.66279  0.11061  0.96004  1.0000
  C   C1294     1.0  0.65897  0.32646  0.86290  1.0000
  H   H2295     1.0  0.69305  0.20809  0.55533  1.0000
  H   H2296     1.0  0.64967  0.18456  0.50436  1.0000
  H   H2297     1.0  0.63373  0.10608  0.51155  1.0000
  H   H2298     1.0  0.54503  0.06914  0.52605  1.0000
  C   C1295     1.0  0.65802  0.33053  0.79175  1.0000
  H   H2299     1.0  0.71761  0.19878  0.73720  1.0000
  H   H2300     1.0  0.53715  0.11625  0.84728  1.0000
  C   C1296     1.0  0.71046  0.25173  0.63731  1.0000
  C   C1297     1.0  0.58718  0.00437  0.52740  1.0000
  H   H2301     1.0  0.70885  0.22069  0.74035  1.0000
  H   H2302     1.0  0.64744  0.33315  0.85256  1.0000
  H   H2303     1.0  0.62863  0.00560  0.60300  1.0000
  H   H2304     1.0  0.75010  0.21315  0.66004  1.0000
  C   C1298     1.0  0.69474  0.20655  0.58098  1.0000
  H   H2305     1.0  0.51627  0.03101  0.92894  1.0000
  H   H2306     1.0  0.70168  0.19395  0.58546  1.0000
  C   C1299     1.0  0.53211  0.06875  0.51449  1.0000
  H   H2307     1.0  0.70675  0.23885  0.69054  1.0000
  H   H2308     1.0  0.50753  0.12583  0.86518  1.0000
  H   H2309     1.0  0.50788  0.01212  0.90951  1.0000
  H   H2310     1.0  0.53604  0.10317  0.88252  1.0000
  H   H2311     1.0  0.69615  0.25178  0.64234  1.0000
  C   C1300     1.0  0.59172  0.01812  0.50688  1.0000
  C   C1301     1.0  0.73680  0.23348  0.63238  1.0000
  C   C1302     1.0  0.51446  0.09943  0.85014  1.0000
  H   H2312     1.0  0.68000  0.30897  0.85158  1.0000
  H   H2313     1.0  0.64277  0.30652  0.88457  1.0000
  H   H2314     1.0  0.57721  0.00653  0.54501  1.0000
  C   C1303     1.0  0.68789  0.33505  0.81217  1.0000
  H   H2315     1.0  0.51021  0.11624  0.97113  1.0000
  H   H2316     1.0  0.55135  0.03861  0.50552  1.0000
  H   H2317     1.0  0.69620  0.33550  0.79064  1.0000
  C   C1304     1.0  0.50802  0.01932  0.93199  1.0000
  H   H2318     1.0  0.75115  0.14415  0.58557  1.0000
  C   C1305     1.0  0.50857  0.07238  0.92685  1.0000
  H   H2319     1.0  0.66362  0.30960  0.90345  1.0000
  H   H2320     1.0  0.74603  0.33516  0.56190  1.0000
  H   H2321     1.0  0.66245  0.33641  0.76930  1.0000
  H   H2322     1.0  0.69273  0.33272  0.57835  1.0000
  H   H2323     1.0  0.66824  0.33630  0.87150  1.0000
  H   H2324     1.0  0.62155  0.33717  0.79260  1.0000
  H   H2325     1.0  0.64069  0.15347  0.50147  1.0000
  H   H2326     1.0  0.58540  0.15351  0.50344  1.0000
  C   C1306     1.0  0.53847  0.03828  0.49354  1.0000
  Fe  Fe147     1.0  0.66537  0.35631  0.13712  1.0000
  S   S295      1.0  0.68288  0.36842  0.17267  1.0000
  S   S296      1.0  0.66117  0.37306  0.09317  1.0000
  Fe  Fe148     1.0  0.66643  0.35562  0.21000  1.0000
  S   S297      1.0  0.66131  0.37232  0.25450  1.0000
  C   C1307     1.0  0.54570  0.53978  0.46106  1.0000
  H   H2327     1.0  0.55211  0.59562  0.17554  1.0000
  H   H2328     1.0  0.55540  0.55315  0.41972  1.0000
  Fe  Fe149     1.0  0.59780  0.56429  0.05091  1.0000
  S   S298      1.0  0.57862  0.57818  0.01922  1.0000
  S   S299      1.0  0.60103  0.53438  0.05205  1.0000
  Fe  Fe150     1.0  0.60392  0.59739  0.09213  1.0000
  S   S300      1.0  0.58517  0.61270  0.06217  1.0000
  S   S301      1.0  0.61076  0.61268  0.13709  1.0000
  Fe  Fe151     1.0  0.56737  0.58979  0.06323  1.0000
  S   S302      1.0  0.53940  0.59343  0.08097  1.0000
  Fe  Fe152     1.0  0.59809  0.60011  0.02040  1.0000
  C   C1308     1.0  0.62993  0.47267  0.05124  1.0000
  S   S303      1.0  0.58539  0.57487  0.09509  1.0000
  S   S304      1.0  0.61810  0.58577  0.05013  1.0000
  Fe  Fe153     1.0  0.60857  0.41462  0.46398  1.0000
  S   S305      1.0  0.61579  0.42954  0.42016  1.0000
  S   S306      1.0  0.64779  0.34492  0.17426  1.0000
  Fe  Fe154     1.0  0.56961  0.41518  0.44733  1.0000
  S   S307      1.0  0.57425  0.42990  0.40273  1.0000
  S   S308      1.0  0.54357  0.40566  0.46655  1.0000
  Fe  Fe155     1.0  0.59740  0.41164  0.39508  1.0000
  S   S309      1.0  0.59973  0.39520  0.34995  1.0000
  Fe  Fe156     1.0  0.59223  0.44650  0.43159  1.0000
  S   S310      1.0  0.59082  0.47629  0.42731  1.0000
  S   S311      1.0  0.59158  0.39587  0.43856  1.0000
  H   H2329     1.0  0.68604  0.40475  0.05348  1.0000
  Fe  Fe157     1.0  0.67345  0.64854  0.28156  1.0000
  C   C1309     1.0  0.66842  0.34961  0.35167  1.0000
  S   S312      1.0  0.67004  0.63190  0.23691  1.0000
  H   H2330     1.0  0.74134  0.36905  0.06880  1.0000
  H   H2331     1.0  0.65554  0.38285  0.36725  1.0000
  Fe  Fe158     1.0  0.67044  0.65209  0.35325  1.0000
  S   S313      1.0  0.66462  0.63594  0.39731  1.0000
  S   S314      1.0  0.69002  0.63852  0.32154  1.0000
  H   H2332     1.0  0.72633  0.37230  0.11659  1.0000
  H   H2333     1.0  0.63950  0.36008  0.46072  1.0000
  H   H2334     1.0  0.53554  0.50535  0.46266  1.0000
  H   H2335     1.0  0.55442  0.41136  0.35629  1.0000
  H   H2336     1.0  0.64633  0.45297  0.08802  1.0000
  C   C1310     1.0  0.52288  0.40969  0.44906  1.0000
  H   H2337     1.0  0.57275  0.44550  0.08905  1.0000
  S   S315      1.0  0.59170  0.39399  0.01937  1.0000
  H   H2338     1.0  0.53214  0.42756  0.41409  1.0000
  H   H2339     1.0  0.72278  0.35009  0.05408  1.0000
  C   C1311     1.0  0.51914  0.59024  0.06194  1.0000
  C   C1312     1.0  0.51795  0.58839  0.02949  1.0000
  H   H2340     1.0  0.65159  0.66502  0.19214  1.0000
  H   H2341     1.0  0.52974  0.58754  0.01560  1.0000
  H   H2342     1.0  0.72923  0.40461  0.17955  1.0000
  C   C1313     1.0  0.61548  0.62334  0.45569  1.0000
  C   C1314     1.0  0.63061  0.61301  0.45799  1.0000
  C   C1315     1.0  0.64540  0.61695  0.43963  1.0000
  C   C1316     1.0  0.64518  0.63106  0.41835  1.0000
  C   C1317     1.0  0.62994  0.64120  0.41564  1.0000
  C   C1318     1.0  0.61522  0.63739  0.43432  1.0000
  H   H2343     1.0  0.62281  0.66483  0.20066  1.0000
  H   H2344     1.0  0.65707  0.60894  0.44178  1.0000
  H   H2345     1.0  0.62958  0.65212  0.39952  1.0000
  H   H2346     1.0  0.60355  0.64541  0.43223  1.0000
  C   C1319     1.0  0.62757  0.61790  0.16432  1.0000
  C   C1320     1.0  0.64507  0.61309  0.15973  1.0000
  C   C1321     1.0  0.65778  0.61749  0.18215  1.0000
  C   C1322     1.0  0.65327  0.62673  0.20955  1.0000
  C   C1323     1.0  0.63572  0.63127  0.21440  1.0000
  C   C1324     1.0  0.62302  0.62697  0.19190  1.0000
  H   H2347     1.0  0.64886  0.60605  0.13883  1.0000
  H   H2348     1.0  0.67127  0.61376  0.17817  1.0000
  H   H2349     1.0  0.63192  0.63798  0.23560  1.0000
  H   H2350     1.0  0.60952  0.63061  0.19598  1.0000
  H   H2351     1.0  0.52097  0.49564  0.49064  1.0000
  C   C1325     1.0  0.64950  0.35099  0.36480  1.0000
  C   C1326     1.0  0.57634  0.43823  0.06749  1.0000
  C   C1327     1.0  0.59263  0.49159  0.45843  1.0000
  C   C1328     1.0  0.59062  0.50957  0.45198  1.0000
  H   H2352     1.0  0.67431  0.34129  0.47469  1.0000
  H   H2353     1.0  0.73908  0.38499  0.16387  1.0000
  C   C1329     1.0  0.63458  0.50259  0.07503  1.0000
  H   H2354     1.0  0.58823  0.51383  0.42820  1.0000
  H   H2355     1.0  0.56398  0.37680  0.37537  1.0000
  C   C1330     1.0  0.64379  0.37858  0.28034  1.0000
  C   C1331     1.0  0.62745  0.37064  0.28002  1.0000
  C   C1332     1.0  0.61425  0.37584  0.30150  1.0000
  C   C1333     1.0  0.61704  0.38917  0.32350  1.0000
  C   C1334     1.0  0.63336  0.39709  0.32387  1.0000
  C   C1335     1.0  0.64662  0.39175  0.30264  1.0000
  H   H2356     1.0  0.62501  0.36042  0.26329  1.0000
  H   H2357     1.0  0.60181  0.36943  0.30106  1.0000
  H   H2358     1.0  0.63575  0.40746  0.34031  1.0000
  H   H2359     1.0  0.65916  0.39805  0.30321  1.0000
  C   C1336     1.0  0.64164  0.37823  0.07278  1.0000
  C   C1337     1.0  0.64279  0.38691  0.04376  1.0000
  C   C1338     1.0  0.62764  0.39176  0.02708  1.0000
  C   C1339     1.0  0.61116  0.38808  0.03937  1.0000
  C   C1340     1.0  0.61002  0.37940  0.06838  1.0000
  C   C1341     1.0  0.62517  0.37449  0.08503  1.0000
  H   H2360     1.0  0.65547  0.38979  0.03405  1.0000
  H   H2361     1.0  0.53208  0.41618  0.36198  1.0000
  H   H2362     1.0  0.59733  0.37645  0.07804  1.0000
  H   H2363     1.0  0.62409  0.36788  0.10738  1.0000
  H   H2364     1.0  0.50444  0.59241  0.10491  1.0000
  H   H2365     1.0  0.66720  0.40143  0.48110  1.0000
  H   H2366     1.0  0.60061  0.42985  0.08664  1.0000
  C   C1342     1.0  0.54440  0.44209  0.32724  1.0000
  H   H2367     1.0  0.56818  0.57225  0.20316  1.0000
  C   C1343     1.0  0.65599  0.37824  0.39197  1.0000
  H   H2368     1.0  0.57680  0.57608  0.16434  1.0000
  N   N73       1.0  0.53721  0.39193  0.33787  1.0000
  C   C1344     1.0  0.64825  0.39383  0.41086  1.0000
  H   H2369     1.0  0.64878  0.59565  0.24673  1.0000
  H   H2370     1.0  0.62866  0.39817  0.00456  1.0000
  H   H2371     1.0  0.60105  0.46177  0.08136  1.0000
  H   H2372     1.0  0.55653  0.44352  0.34106  1.0000
  H   H2373     1.0  0.62192  0.53115  0.99490  1.0000
  H   H2374     1.0  0.54776  0.56757  0.45025  1.0000
  H   H2375     1.0  0.59222  0.36033  0.39131  1.0000
  H   H2376     1.0  0.62627  0.48007  0.10089  1.0000
  C   C1345     1.0  0.53564  0.38232  0.36874  1.0000
  H   H2377     1.0  0.66097  0.36937  0.45707  1.0000
  C   C1346     1.0  0.69185  0.42995  0.07197  1.0000
  C   C1347     1.0  0.70707  0.37436  0.05826  1.0000
  C   C1348     1.0  0.59615  0.43620  0.06470  1.0000
  C   C1349     1.0  0.59246  0.49037  0.00093  1.0000
  H   H2378     1.0  0.70753  0.37668  0.03250  1.0000
  H   H2379     1.0  0.56461  0.38893  0.32566  1.0000
  H   H2380     1.0  0.63548  0.39785  0.40073  1.0000
  H   H2381     1.0  0.59853  0.46074  0.04005  1.0000
  C   C1350     1.0  0.62894  0.44416  0.02626  1.0000
  H   H2382     1.0  0.59627  0.35687  0.43263  1.0000
  C   C1351     1.0  0.69453  0.41014  0.07199  1.0000
  H   H2383     1.0  0.64438  0.47342  0.04934  1.0000
  H   H2384     1.0  0.58098  0.50331  0.04111  1.0000
  H   H2385     1.0  0.67012  0.37688  0.39752  1.0000
  H   H2386     1.0  0.52564  0.38863  0.38406  1.0000
  C   C1352     1.0  0.73744  0.38274  0.06320  1.0000
  H   H2387     1.0  0.57038  0.42510  0.06866  1.0000
  H   H2388     1.0  0.74959  0.40802  0.07452  1.0000
  H   H2389     1.0  0.59079  0.53587  0.47050  1.0000
  C   C1353     1.0  0.61344  0.52002  0.99640  1.0000
  H   H2390     1.0  0.65735  0.44536  0.03470  1.0000
  C   C1354     1.0  0.72697  0.39314  0.16441  1.0000
  H   H2391     1.0  0.54004  0.37487  0.27519  1.0000
  N   N74       1.0  0.62443  0.45394  0.05588  1.0000
  H   H2392     1.0  0.69970  0.43598  0.09071  1.0000
  Fe  Fe159     1.0  0.69892  0.34365  0.16992  1.0000
  H   H2393     1.0  0.53240  0.53934  0.45116  1.0000
  C   C1355     1.0  0.59756  0.35103  0.40901  1.0000
  H   H2394     1.0  0.64604  0.39064  0.43580  1.0000
  C   C1356     1.0  0.55009  0.36856  0.41634  1.0000
  H   H2395     1.0  0.71620  0.40689  0.03984  1.0000
  C   C1357     1.0  0.55241  0.38125  0.38896  1.0000
  H   H2396     1.0  0.55523  0.39425  0.39891  1.0000
  H   H2397     1.0  0.67739  0.34336  0.36874  1.0000
  H   H2398     1.0  0.55406  0.41996  0.30193  1.0000
  H   H2399     1.0  0.62622  0.41869  0.07897  1.0000
  H   H2400     1.0  0.61610  0.59790  0.24701  1.0000
  H   H2401     1.0  0.70985  0.35165  0.08955  1.0000
  H   H2402     1.0  0.64136  0.35719  0.34608  1.0000
  H   H2403     1.0  0.64965  0.45887  0.00301  1.0000
  H   H2404     1.0  0.64718  0.40657  0.11698  1.0000
  H   H2405     1.0  0.50935  0.39290  0.48143  1.0000
  C   C1358     1.0  0.74442  0.34319  0.13814  1.0000
  H   H2406     1.0  0.72221  0.41478  0.07667  1.0000
  H   H2407     1.0  0.59334  0.66853  0.04498  1.0000
  H   H2408     1.0  0.53108  0.36876  0.36469  1.0000
  N   N75       1.0  0.71916  0.38664  0.07491  1.0000
  H   H2409     1.0  0.53053  0.42273  0.30194  1.0000
  C   C1359     1.0  0.60099  0.51919  0.02043  1.0000
  H   H2410     1.0  0.62487  0.37088  0.42190  1.0000
  H   H2411     1.0  0.52044  0.39623  0.29754  1.0000
  C   C1360     1.0  0.63763  0.42662  0.08500  1.0000
  H   H2412     1.0  0.63934  0.59424  0.28528  1.0000
  H   H2413     1.0  0.64736  0.57472  0.26634  1.0000
  H   H2414     1.0  0.75192  0.62161  0.41512  1.0000
  H   H2415     1.0  0.67566  0.63406  0.46688  1.0000
  H   H2416     1.0  0.57088  0.44528  0.04692  1.0000
  H   H2417     1.0  0.62044  0.44878  0.00669  1.0000
  H   H2418     1.0  0.55876  0.48394  0.47741  1.0000
  H   H2419     1.0  0.51894  0.62644  0.00092  1.0000
  H   H2420     1.0  0.59328  0.52073  0.24059  1.0000
  H   H2421     1.0  0.58072  0.64275  0.02133  1.0000
  H   H2422     1.0  0.57126  0.36457  0.27530  1.0000
  H   H2423     1.0  0.73790  0.38388  0.03719  1.0000
  H   H2424     1.0  0.57217  0.66202  0.00306  1.0000
  C   C1361     1.0  0.71015  0.35457  0.06413  1.0000
  H   H2425     1.0  0.73315  0.40706  0.12270  1.0000
  C   C1362     1.0  0.52096  0.42071  0.42312  1.0000
  C   C1363     1.0  0.50806  0.40138  0.46123  1.0000
  S   S316      1.0  0.58620  0.43272  0.47655  1.0000
  H   H2426     1.0  0.61722  0.65596  0.14520  1.0000
  H   H2427     1.0  0.67354  0.36267  0.34549  1.0000
  H   H2428     1.0  0.50567  0.41289  0.34120  1.0000
  H   H2429     1.0  0.67156  0.65735  0.46745  1.0000
  H   H2430     1.0  0.62583  0.44973  0.10593  1.0000
  C   C1364     1.0  0.65531  0.35003  0.42108  1.0000
  C   C1365     1.0  0.51997  0.39030  0.32121  1.0000
  H   H2431     1.0  0.63834  0.53829  0.12388  1.0000
  H   H2432     1.0  0.69580  0.34605  0.02309  1.0000
  C   C1366     1.0  0.64396  0.42074  0.11729  1.0000
  C   C1367     1.0  0.68100  0.39969  0.48836  1.0000
  H   H2433     1.0  0.51713  0.37624  0.31736  1.0000
  H   H2434     1.0  0.62632  0.55738  0.11103  1.0000
  H   H2435     1.0  0.65586  0.42787  0.12404  1.0000
  C   C1368     1.0  0.62428  0.48570  0.07720  1.0000
  C   C1369     1.0  0.72217  0.39922  0.13143  1.0000
  C   C1370     1.0  0.57195  0.65420  0.02495  1.0000
  H   H2436     1.0  0.56597  0.37787  0.24165  1.0000
  C   C1371     1.0  0.57977  0.66495  0.05129  1.0000
  H   H2437     1.0  0.66011  0.34425  0.30390  1.0000
  H   H2438     1.0  0.69338  0.37693  0.06546  1.0000
  H   H2439     1.0  0.64853  0.50013  0.08064  1.0000
  H   H2440     1.0  0.63361  0.42293  0.13517  1.0000
  C   C1372     1.0  0.60488  0.45411  0.06034  1.0000
  H   H2441     1.0  0.56307  0.60427  0.20925  1.0000
  H   H2442     1.0  0.73101  0.66102  0.38567  1.0000
  H   H2443     1.0  0.56847  0.55620  0.45405  1.0000
  C   C1373     1.0  0.55181  0.38330  0.31919  1.0000
  C   C1374     1.0  0.61666  0.34662  0.40185  1.0000
  H   H2444     1.0  0.71066  0.40812  0.13332  1.0000
  H   H2445     1.0  0.71633  0.38537  0.17493  1.0000
  H   H2446     1.0  0.54861  0.35502  0.40768  1.0000
  H   H2447     1.0  0.57813  0.38709  0.27333  1.0000
  H   H2448     1.0  0.68991  0.40491  0.09477  1.0000
  H   H2449     1.0  0.55472  0.63784  0.05190  1.0000
  H   H2450     1.0  0.53302  0.44623  0.34178  1.0000
  H   H2451     1.0  0.57997  0.35810  0.48416  1.0000
  H   H2452     1.0  0.68298  0.34703  0.05875  1.0000
  H   H2453     1.0  0.54516  0.45089  0.30656  1.0000
  C   C1375     1.0  0.65331  0.35730  0.45467  1.0000
  C   C1376     1.0  0.53482  0.49888  0.48582  1.0000
  H   H2454     1.0  0.62483  0.47792  0.02865  1.0000
  H   H2455     1.0  0.65456  0.42043  0.42339  1.0000
  H   H2456     1.0  0.67331  0.40628  0.41853  1.0000
  H   H2457     1.0  0.70443  0.37950  0.11651  1.0000
  H   H2458     1.0  0.61481  0.53822  0.12411  1.0000
  C   C1377     1.0  0.50451  0.42285  0.40880  1.0000
  C   C1378     1.0  0.66019  0.40962  0.40915  1.0000
  H   H2459     1.0  0.57520  0.51741  0.21459  1.0000
  C   C1379     1.0  0.54244  0.42322  0.31645  1.0000
  C   C1380     1.0  0.55041  0.38385  0.28295  1.0000
  N   N76       1.0  0.54275  0.64115  0.00649  1.0000
  H   H2460     1.0  0.59897  0.42757  0.04458  1.0000
  C   C1381     1.0  0.63354  0.44656  0.08448  1.0000
  C   C1382     1.0  0.55490  0.55513  0.44543  1.0000
  H   H2461     1.0  0.58017  0.65720  0.07334  1.0000
  C   C1383     1.0  0.59049  0.50426  0.02243  1.0000
  H   H2462     1.0  0.52989  0.62282  0.03695  1.0000
  C   C1384     1.0  0.71784  0.38358  0.10981  1.0000
  C   C1385     1.0  0.71390  0.40497  0.06539  1.0000
  H   H2463     1.0  0.61025  0.48924  0.07455  1.0000
  H   H2464     1.0  0.56169  0.36893  0.43174  1.0000
  C   C1386     1.0  0.54149  0.41064  0.34478  1.0000
  C   C1387     1.0  0.62773  0.36340  0.40029  1.0000
  H   H2465     1.0  0.66150  0.41424  0.38457  1.0000
  H   H2466     1.0  0.55304  0.52772  0.45460  1.0000
  H   H2467     1.0  0.62233  0.37161  0.38104  1.0000
  H   H2468     1.0  0.68697  0.38898  0.47432  1.0000
  H   H2469     1.0  0.62914  0.51222  0.09191  1.0000
  C   C1388     1.0  0.61220  0.66944  0.14088  1.0000
  H   H2470     1.0  0.54718  0.39706  0.27398  1.0000
  C   C1389     1.0  0.74445  0.66386  0.38002  1.0000
  H   H2471     1.0  0.64806  0.42330  0.06788  1.0000
  H   H2472     1.0  0.53843  0.37226  0.43051  1.0000
  H   H2473     1.0  0.61318  0.66105  0.29766  1.0000
  H   H2474     1.0  0.57179  0.60781  0.17023  1.0000
  C   C1390     1.0  0.59195  0.52211  0.47595  1.0000
  C   C1391     1.0  0.66030  0.34434  0.47904  1.0000
  C   C1392     1.0  0.56751  0.37796  0.26748  1.0000
  N   N77       1.0  0.64710  0.36079  0.39523  1.0000
  H   H2475     1.0  0.57366  0.53410  0.24406  1.0000
  C   C1393     1.0  0.54496  0.48158  0.48378  1.0000
  N   N78       1.0  0.60709  0.56994  0.20170  1.0000
  C   C1394     1.0  0.61057  0.56546  0.16785  1.0000
  C   C1395     1.0  0.59374  0.58463  0.20325  1.0000
  C   C1396     1.0  0.62389  0.57667  0.21524  1.0000
  C   C1397     1.0  0.60128  0.55443  0.22094  1.0000
  C   C1398     1.0  0.59019  0.54054  0.20406  1.0000
  C   C1399     1.0  0.62653  0.55329  0.16162  1.0000
  C   C1400     1.0  0.62258  0.58484  0.24835  1.0000
  C   C1401     1.0  0.57572  0.58137  0.18829  1.0000
  C   C1402     1.0  0.56507  0.59835  0.18581  1.0000
  C   C1403     1.0  0.58266  0.52742  0.22736  1.0000
  C   C1404     1.0  0.62645  0.54639  0.12812  1.0000
  C   C1405     1.0  0.64064  0.58748  0.26242  1.0000
  H   H2476     1.0  0.61277  0.57757  0.15402  1.0000
  H   H2477     1.0  0.59909  0.55945  0.15684  1.0000
  H   H2478     1.0  0.59082  0.58819  0.22793  1.0000
  H   H2479     1.0  0.59921  0.59657  0.19230  1.0000
  H   H2480     1.0  0.62959  0.58675  0.19949  1.0000
  H   H2481     1.0  0.63387  0.56599  0.21665  1.0000
  H   H2482     1.0  0.61274  0.54713  0.23060  1.0000
  H   H2483     1.0  0.59382  0.55896  0.24188  1.0000
  H   H2484     1.0  0.59837  0.53308  0.18714  1.0000
  H   H2485     1.0  0.57920  0.54644  0.19089  1.0000
  H   H2486     1.0  0.63880  0.56066  0.16458  1.0000
  H   H2487     1.0  0.62678  0.54203  0.17804  1.0000
  H   H2488     1.0  0.61504  0.57644  0.26456  1.0000
  H   H2489     1.0  0.54636  0.65901  0.04520  1.0000
  H   H2490     1.0  0.62603  0.43007  0.02854  1.0000
  H   H2491     1.0  0.63360  0.50834  0.05119  1.0000
  H   H2492     1.0  0.58973  0.33895  0.40848  1.0000
  C   C1406     1.0  0.55327  0.64807  0.03338  1.0000
  C   C1407     1.0  0.64810  0.44602  0.01487  1.0000
  H   H2493     1.0  0.69562  0.43556  0.04894  1.0000
  H   H2494     1.0  0.61694  0.33972  0.37908  1.0000
  S   S317      1.0  0.72883  0.34591  0.16896  1.0000
  S   S318      1.0  0.65314  0.66085  0.31315  1.0000
  H   H2495     1.0  0.55748  0.61675  0.00920  1.0000
  H   H2496     1.0  0.63180  0.66915  0.25151  1.0000
  H   H2497     1.0  0.51421  0.52513  0.48029  1.0000
  H   H2498     1.0  0.55298  0.36914  0.32519  1.0000
  H   H2499     1.0  0.67792  0.43315  0.07646  1.0000
  H   H2500     1.0  0.58425  0.47906  0.00277  1.0000
  H   H2501     1.0  0.53922  0.47325  0.46541  1.0000
  C   C1408     1.0  0.59576  0.48631  0.48932  1.0000
  H   H2502     1.0  0.63089  0.60194  0.47376  1.0000
  C   C1409     1.0  0.67871  0.64640  0.47906  1.0000
  H   H2503     1.0  0.68792  0.41206  0.48346  1.0000
  C   C1410     1.0  0.75229  0.39384  0.07681  1.0000
  H   H2504     1.0  0.66958  0.34852  0.41702  1.0000
  S   S319      1.0  0.59666  0.61940  0.47907  1.0000
  H   H2505     1.0  0.50688  0.65426  0.01697  1.0000
  H   H2506     1.0  0.69293  0.64865  0.47665  1.0000
  Fe  Fe160     1.0  0.70410  0.66409  0.32120  1.0000
  C   C1411     1.0  0.69601  0.34373  0.04875  1.0000
  C   C1412     1.0  0.52635  0.63312  0.01952  1.0000
  H   H2507     1.0  0.75358  0.65982  0.42727  1.0000
  H   H2508     1.0  0.51898  0.65381  0.05331  1.0000
  H   H2509     1.0  0.59799  0.66995  0.14607  1.0000
  H   H2510     1.0  0.68365  0.66441  0.19624  1.0000
  S   S320      1.0  0.73357  0.66893  0.31839  1.0000
  C   C1413     1.0  0.74909  0.66795  0.34918  1.0000
  H   H2511     1.0  0.65882  0.66814  0.23163  1.0000
  C   C1414     1.0  0.51295  0.64571  0.03504  1.0000
  H   H2512     1.0  0.65271  0.41879  0.00232  1.0000
  C   C1415     1.0  0.66901  0.33864  0.32187  1.0000
  C   C1416     1.0  0.50382  0.39872  0.33765  1.0000
  H   H2513     1.0  0.68244  0.33849  0.31200  1.0000
  H   H2514     1.0  0.62141  0.33762  0.42043  1.0000
  H   H2515     1.0  0.52170  0.48056  0.99338  1.0000
  H   H2516     1.0  0.69655  0.38427  0.63249  1.0000
  S   S321      1.0  0.66842  0.36665  0.66388  1.0000
  S   S322      1.0  0.63818  0.34565  0.59713  1.0000
  Fe  Fe161     1.0  0.65931  0.35508  0.70993  1.0000
  S   S323      1.0  0.65286  0.37198  0.75362  1.0000
  C   C1417     1.0  0.59821  0.65303  0.54818  1.0000
  H   H2517     1.0  0.61983  0.65917  0.51855  1.0000
  H   H2518     1.0  0.71888  0.65435  0.90776  1.0000
  Fe  Fe162     1.0  0.59310  0.56167  0.54186  1.0000
  S   S324      1.0  0.57310  0.57783  0.51593  1.0000
  S   S325      1.0  0.59726  0.53198  0.53802  1.0000
  Fe  Fe163     1.0  0.60224  0.59248  0.58706  1.0000
  S   S326      1.0  0.58213  0.61012  0.56447  1.0000
  S   S327      1.0  0.62190  0.59858  0.62656  1.0000
  Fe  Fe164     1.0  0.56413  0.58697  0.56328  1.0000
  S   S328      1.0  0.53605  0.58425  0.58149  1.0000
  Fe  Fe165     1.0  0.59275  0.59957  0.51864  1.0000
  C   C1418     1.0  0.73721  0.35213  0.63407  1.0000
  S   S329      1.0  0.58353  0.57008  0.58944  1.0000
  S   S330      1.0  0.61345  0.58271  0.54116  1.0000
  Fe  Fe166     1.0  0.58960  0.41116  0.97574  1.0000
  S   S331      1.0  0.61124  0.42063  0.94451  1.0000
  H   H2519     1.0  0.62198  0.66574  0.55874  1.0000
  Fe  Fe167     1.0  0.56085  0.42969  0.93740  1.0000
  S   S332      1.0  0.58085  0.44070  0.90405  1.0000
  S   S333      1.0  0.53240  0.43740  0.92638  1.0000
  Fe  Fe168     1.0  0.59371  0.41393  0.90374  1.0000
  S   S334      1.0  0.59688  0.39783  0.85793  1.0000
  Fe  Fe169     1.0  0.59656  0.44662  0.94706  1.0000
  S   S335      1.0  0.61070  0.47259  0.95351  1.0000
  S   S336      1.0  0.57291  0.40282  0.93543  1.0000
  S   S337      1.0  0.57590  0.43734  0.98019  1.0000
  Fe  Fe170     1.0  0.66029  0.65993  0.77190  1.0000
  H   H2520     1.0  0.51196  0.61612  0.66270  1.0000
  S   S338      1.0  0.64276  0.65644  0.72840  1.0000
  S   S339      1.0  0.68358  0.33816  0.71336  1.0000
  N   N79       1.0  0.57557  0.40120  0.56376  1.0000
  Fe  Fe171     1.0  0.66465  0.64779  0.84007  1.0000
  S   S340      1.0  0.65894  0.62447  0.87178  1.0000
  S   S341      1.0  0.67814  0.64028  0.79505  1.0000
  H   H2521     1.0  0.74507  0.63864  0.88570  1.0000
  H   H2522     1.0  0.66877  0.62249  0.56799  1.0000
  H   H2523     1.0  0.57088  0.38686  0.65910  1.0000
  C   C1419     1.0  0.55337  0.62666  0.99137  1.0000
  H   H2524     1.0  0.61333  0.43776  0.53246  1.0000
  C   C1420     1.0  0.51225  0.42842  0.93888  1.0000
  C   C1421     1.0  0.60183  0.63680  0.78925  1.0000
  C   C1422     1.0  0.52611  0.37901  0.90925  1.0000
  H   H2525     1.0  0.69006  0.63344  0.94110  1.0000
  C   C1423     1.0  0.74094  0.66492  0.83256  1.0000
  C   C1424     1.0  0.51583  0.58637  0.56142  1.0000
  H   H2526     1.0  0.70563  0.57654  0.93671  1.0000
  C   C1425     1.0  0.51444  0.59448  0.53213  1.0000
  H   H2527     1.0  0.59090  0.35370  0.52066  1.0000
  H   H2528     1.0  0.52602  0.59934  0.52066  1.0000
  C   C1426     1.0  0.61799  0.62085  0.95088  1.0000
  C   C1427     1.0  0.63026  0.60741  0.94611  1.0000
  C   C1428     1.0  0.64275  0.60878  0.92189  1.0000
  C   C1429     1.0  0.64324  0.62363  0.90241  1.0000
  C   C1430     1.0  0.63105  0.63711  0.90729  1.0000
  C   C1431     1.0  0.61845  0.63566  0.93127  1.0000
  H   H2529     1.0  0.62999  0.59589  0.96084  1.0000
  H   H2530     1.0  0.65205  0.59823  0.91821  1.0000
  H   H2531     1.0  0.63123  0.64858  0.89243  1.0000
  H   H2532     1.0  0.60899  0.64610  0.93469  1.0000
  C   C1432     1.0  0.62693  0.61461  0.65551  1.0000
  C   C1433     1.0  0.61720  0.63009  0.65931  1.0000
  C   C1434     1.0  0.62214  0.64253  0.68190  1.0000
  C   C1435     1.0  0.63681  0.63976  0.70121  1.0000
  C   C1436     1.0  0.64637  0.62417  0.69771  1.0000
  C   C1437     1.0  0.64146  0.61175  0.67508  1.0000
  H   H2533     1.0  0.60599  0.63257  0.64459  1.0000
  H   H2534     1.0  0.61461  0.65452  0.68419  1.0000
  H   H2535     1.0  0.65783  0.62186  0.71186  1.0000
  H   H2536     1.0  0.64916  0.59989  0.67241  1.0000
  H   H2537     1.0  0.55775  0.43397  0.57317  1.0000
  C   C1438     1.0  0.59703  0.49886  0.51326  1.0000
  C   C1439     1.0  0.58306  0.39398  0.65370  1.0000
  C   C1440     1.0  0.65331  0.43193  0.99136  1.0000
  H   H2538     1.0  0.54339  0.43874  0.52141  1.0000
  H   H2539     1.0  0.51656  0.37016  0.84767  1.0000
  H   H2540     1.0  0.59962  0.49461  0.53698  1.0000
  H   H2541     1.0  0.52561  0.52583  0.56288  1.0000
  H   H2542     1.0  0.52784  0.34138  0.83052  1.0000
  H   H2543     1.0  0.50790  0.52010  0.51905  1.0000
  C   C1441     1.0  0.63701  0.37892  0.78240  1.0000
  C   C1442     1.0  0.61928  0.37492  0.78042  1.0000
  C   C1443     1.0  0.60735  0.38075  0.80372  1.0000
  C   C1444     1.0  0.61282  0.39076  0.82942  1.0000
  C   C1445     1.0  0.63058  0.39472  0.83145  1.0000
  C   C1446     1.0  0.64251  0.38885  0.80817  1.0000
  H   H2544     1.0  0.61468  0.36750  0.76075  1.0000
  H   H2545     1.0  0.59371  0.37759  0.80167  1.0000
  H   H2546     1.0  0.63510  0.40240  0.85087  1.0000
  H   H2547     1.0  0.65613  0.39216  0.81008  1.0000
  C   C1447     1.0  0.63584  0.36344  0.57072  1.0000
  C   C1448     1.0  0.64256  0.37993  0.57699  1.0000
  C   C1449     1.0  0.64041  0.39362  0.55513  1.0000
  C   C1450     1.0  0.63145  0.39103  0.52692  1.0000
  C   C1451     1.0  0.62465  0.37459  0.52076  1.0000
  C   C1452     1.0  0.62685  0.36089  0.54256  1.0000
  H   H2548     1.0  0.64935  0.38213  0.59872  1.0000
  H   H2549     1.0  0.64564  0.40634  0.56017  1.0000
  H   H2550     1.0  0.53959  0.50306  0.53423  1.0000
  H   H2551     1.0  0.62173  0.34813  0.53748  1.0000
  C   C1453     1.0  0.73365  0.40043  0.57096  1.0000
  N   N80       1.0  0.53442  0.52898  0.51504  1.0000
  H   H2552     1.0  0.69280  0.59221  0.95912  1.0000
  H   H2553     1.0  0.73724  0.61790  0.84107  1.0000
  H   H2554     1.0  0.56376  0.41378  0.52343  1.0000
  H   H2555     1.0  0.54816  0.36115  0.85775  1.0000
  H   H2556     1.0  0.59954  0.63891  0.81463  1.0000
  S   S342      1.0  0.68409  0.66849  0.85132  1.0000
  H   H2557     1.0  0.56735  0.35322  0.51866  1.0000
  C   C1454     1.0  0.59262  0.43026  0.56479  1.0000
  C   C1455     1.0  0.55986  0.40893  0.54701  1.0000
  C   C1456     1.0  0.68167  0.39526  0.52321  1.0000
  H   H2558     1.0  0.58963  0.38567  0.50651  1.0000
  C   C1457     1.0  0.68836  0.41020  0.64490  1.0000
  H   H2559     1.0  0.51832  0.47403  0.95324  1.0000
  N   N81       1.0  0.70296  0.38671  0.56771  1.0000
  H   H2560     1.0  0.60363  0.40396  0.56460  1.0000
  C   C1458     1.0  0.70078  0.39306  0.53451  1.0000
  C   C1459     1.0  0.69391  0.36953  0.57308  1.0000
  H   H2561     1.0  0.69889  0.41358  0.58257  1.0000
  C   C1460     1.0  0.72214  0.38403  0.57412  1.0000
  H   H2562     1.0  0.54915  0.65551  0.96414  1.0000
  C   C1461     1.0  0.69745  0.35516  0.54821  1.0000
  C   C1462     1.0  0.53855  0.65491  0.98205  1.0000
  C   C1463     1.0  0.65429  0.60658  0.53597  1.0000
  H   H2563     1.0  0.69402  0.37902  0.83112  1.0000
  H   H2564     1.0  0.65083  0.58558  0.57008  1.0000
  H   H2565     1.0  0.67347  0.34116  0.55878  1.0000
  H   H2566     1.0  0.57013  0.41430  0.60784  1.0000
  H   H2567     1.0  0.59063  0.66234  0.77857  1.0000
  C   C1464     1.0  0.50602  0.54752  0.50681  1.0000
  C   C1465     1.0  0.53638  0.43244  0.54119  1.0000
  H   H2568     1.0  0.67953  0.37150  0.57487  1.0000
  H   H2569     1.0  0.69774  0.36382  0.59611  1.0000
  H   H2570     1.0  0.51231  0.60029  0.63149  1.0000
  H   H2571     1.0  0.52300  0.41118  0.97389  1.0000
  C   C1466     1.0  0.69924  0.39773  0.62465  1.0000
  H   H2572     1.0  0.59781  0.60940  0.89349  1.0000
  H   H2573     1.0  0.66688  0.43407  0.98317  1.0000
  H   H2574     1.0  0.52727  0.42268  0.53160  1.0000
  H   H2575     1.0  0.71154  0.35179  0.54671  1.0000
  H   H2576     1.0  0.69299  0.35938  0.52470  1.0000
  C   C1467     1.0  0.55774  0.60563  0.94600  1.0000
  S   S343      1.0  0.72611  0.66056  0.80168  1.0000
  H   H2577     1.0  0.61804  0.37233  0.49893  1.0000
  H   H2578     1.0  0.56036  0.39368  0.60410  1.0000
  H   H2579     1.0  0.54498  0.54829  0.60604  1.0000
  H   H2580     1.0  0.70675  0.40611  0.53151  1.0000
  H   H2581     1.0  0.64458  0.43251  0.97074  1.0000
  H   H2582     1.0  0.69102  0.42399  0.63852  1.0000
  H   H2583     1.0  0.64101  0.60540  0.52643  1.0000
  H   H2584     1.0  0.53447  0.60778  0.97352  1.0000
  H   H2585     1.0  0.58305  0.43805  0.55103  1.0000
  H   H2586     1.0  0.51307  0.55770  0.49348  1.0000
  H   H2587     1.0  0.56434  0.59610  0.96178  1.0000
  C   C1468     1.0  0.73457  0.34333  0.60589  1.0000
  N   N82       1.0  0.72162  0.62639  0.90330  1.0000
  C   C1469     1.0  0.71505  0.62655  0.87003  1.0000
  H   H2588     1.0  0.62591  0.50649  0.95791  1.0000
  H   H2589     1.0  0.73464  0.40454  0.54608  1.0000
  C   C1470     1.0  0.71707  0.60986  0.92090  1.0000
  C   C1471     1.0  0.69968  0.60093  0.91207  1.0000
  C   C1472     1.0  0.72412  0.61316  0.84789  1.0000
  C   C1473     1.0  0.59522  0.51683  0.50676  1.0000
  C   C1474     1.0  0.69450  0.64357  0.92434  1.0000
  C   C1475     1.0  0.65368  0.64374  0.51789  1.0000
  C   C1476     1.0  0.71386  0.61068  0.81781  1.0000
  H   H2590     1.0  0.71686  0.63968  0.85928  1.0000
  H   H2591     1.0  0.70076  0.62458  0.86903  1.0000
  H   H2592     1.0  0.62093  0.43051  0.57048  1.0000
  C   C1477     1.0  0.71453  0.64232  0.92005  1.0000
  C   C1478     1.0  0.59193  0.41084  0.55511  1.0000
  C   C1479     1.0  0.54934  0.42370  0.56366  1.0000
  H   H2593     1.0  0.54973  0.33962  0.81522  1.0000
  S   S344      1.0  0.60142  0.61960  0.98001  1.0000
  H   H2594     1.0  0.70081  0.59479  0.88867  1.0000
  H   H2595     1.0  0.68854  0.61021  0.91115  1.0000
  H   H2596     1.0  0.51249  0.41318  0.83434  1.0000
  H   H2597     1.0  0.72577  0.60025  0.85946  1.0000
  C   C1480     1.0  0.57252  0.40096  0.59870  1.0000
  H   H2598     1.0  0.58150  0.40783  0.66097  1.0000
  H   H2599     1.0  0.68761  0.64204  0.90192  1.0000
  C   C1481     1.0  0.57785  0.38245  0.55331  1.0000
  C   C1482     1.0  0.53477  0.53409  0.54915  1.0000
  H   H2600     1.0  0.54176  0.41812  0.58346  1.0000
  C   C1483     1.0  0.54541  0.54178  0.49705  1.0000
  H   H2601     1.0  0.71287  0.62321  0.80471  1.0000
  H   H2602     1.0  0.72068  0.60097  0.80271  1.0000
  H   H2603     1.0  0.70062  0.60586  0.82322  1.0000
  H   H2604     1.0  0.59385  0.38797  0.66750  1.0000
  C   C1484     1.0  0.59381  0.60595  0.86937  1.0000
  H   H2605     1.0  0.51512  0.59323  0.67136  1.0000
  H   H2606     1.0  0.69176  0.40816  0.66990  1.0000
  H   H2607     1.0  0.52754  0.36563  0.95407  1.0000
  H   H2608     1.0  0.72742  0.59964  0.91768  1.0000
  H   H2609     1.0  0.58345  0.61530  0.86182  1.0000
  H   H2610     1.0  0.65258  0.34172  0.80517  1.0000
  H   H2611     1.0  0.52527  0.49584  0.96187  1.0000
  H   H2612     1.0  0.52253  0.36672  0.89753  1.0000
  N   N83       1.0  0.61791  0.60643  0.78863  1.0000
  C   C1485     1.0  0.60497  0.60120  0.81362  1.0000
  C   C1486     1.0  0.61336  0.59768  0.75818  1.0000
  C   C1487     1.0  0.63556  0.59936  0.79862  1.0000
  C   C1488     1.0  0.61898  0.62599  0.78431  1.0000
  C   C1489     1.0  0.60958  0.60691  0.84744  1.0000
  C   C1490     1.0  0.65077  0.60162  0.77498  1.0000
  C   C1491     1.0  0.59563  0.60275  0.74331  1.0000
  C   C1492     1.0  0.59224  0.59183  0.71416  1.0000
  C   C1493     1.0  0.66806  0.59563  0.78941  1.0000
  H   H2613     1.0  0.60369  0.58671  0.81415  1.0000
  H   H2614     1.0  0.59167  0.60611  0.80829  1.0000
  H   H2615     1.0  0.62306  0.60091  0.73970  1.0000
  H   H2616     1.0  0.61390  0.58320  0.76112  1.0000
  H   H2617     1.0  0.63476  0.58517  0.80435  1.0000
  H   H2618     1.0  0.63981  0.60588  0.82047  1.0000
  H   H2619     1.0  0.62869  0.63165  0.80055  1.0000
  H   H2620     1.0  0.62418  0.62899  0.76059  1.0000
  H   H2621     1.0  0.61987  0.59809  0.85719  1.0000
  H   H2622     1.0  0.61463  0.62040  0.84796  1.0000
  H   H2623     1.0  0.65191  0.61550  0.76784  1.0000
  H   H2624     1.0  0.64894  0.59355  0.75381  1.0000
  H   H2625     1.0  0.58462  0.60070  0.75973  1.0000
  H   H2626     1.0  0.59579  0.61660  0.73554  1.0000
  H   H2627     1.0  0.60275  0.59368  0.69648  1.0000
  H   H2628     1.0  0.59150  0.57775  0.72028  1.0000
  H   H2629     1.0  0.57968  0.59597  0.70341  1.0000
  H   H2630     1.0  0.66789  0.58140  0.79447  1.0000
  H   H2631     1.0  0.67892  0.59830  0.77285  1.0000
  H   H2632     1.0  0.67046  0.60273  0.81152  1.0000
  S   S345      1.0  0.64609  0.66672  0.81696  1.0000
  H   H2633     1.0  0.59020  0.63030  0.77998  1.0000
  H   H2634     1.0  0.56778  0.61399  0.93487  1.0000
  H   H2635     1.0  0.59302  0.64318  0.53186  1.0000
  H   H2636     1.0  0.55100  0.59830  0.92739  1.0000
  C   C1494     1.0  0.55122  0.53548  0.60054  1.0000
  H   H2637     1.0  0.67787  0.36030  0.79575  1.0000
  C   C1495     1.0  0.51123  0.41567  0.96234  1.0000
  H   H2638     1.0  0.71682  0.61240  0.94654  1.0000
  H   H2639     1.0  0.52669  0.65115  0.96887  1.0000
  H   H2640     1.0  0.71319  0.40035  0.62928  1.0000
  H   H2641     1.0  0.56633  0.38459  0.50582  1.0000
  H   H2642     1.0  0.62296  0.63216  0.57252  1.0000
  H   H2643     1.0  0.59031  0.37675  0.56230  1.0000
  H   H2644     1.0  0.67328  0.58941  0.55894  1.0000
  H   H2645     1.0  0.62360  0.62830  0.53193  1.0000
  H   H2646     1.0  0.60389  0.65321  0.74763  1.0000
  C   C1496     1.0  0.57820  0.37936  0.51738  1.0000
  H   H2647     1.0  0.70807  0.38438  0.51802  1.0000
  H   H2648     1.0  0.59984  0.39979  0.61505  1.0000
  H   H2649     1.0  0.63189  0.65264  0.60721  1.0000
  Fe  Fe172     1.0  0.69159  0.34806  0.66597  1.0000
  H   H2650     1.0  0.68051  0.40020  0.58733  1.0000
  H   H2651     1.0  0.56441  0.53509  0.61119  1.0000
  H   H2652     1.0  0.61402  0.66209  0.78201  1.0000
  H   H2653     1.0  0.74550  0.62249  0.95212  1.0000
  H   H2654     1.0  0.54809  0.36660  0.93346  1.0000
  H   H2655     1.0  0.70308  0.36029  0.85135  1.0000
  H   H2656     1.0  0.54339  0.52485  0.61103  1.0000
  H   H2657     1.0  0.74893  0.64489  0.94038  1.0000
  H   H2658     1.0  0.56720  0.37432  0.56325  1.0000
  C   C1497     1.0  0.69505  0.58658  0.93551  1.0000
  C   C1498     1.0  0.55290  0.53312  0.56517  1.0000
  H   H2659     1.0  0.61076  0.45175  0.56583  1.0000
  H   H2660     1.0  0.58855  0.59251  0.86988  1.0000
  H   H2661     1.0  0.72789  0.37412  0.55804  1.0000
  H   H2662     1.0  0.52864  0.44261  0.55371  1.0000
  H   H2663     1.0  0.53334  0.35152  0.79342  1.0000
  H   H2664     1.0  0.56125  0.54374  0.55615  1.0000
  H   H2665     1.0  0.64971  0.63813  0.61718  1.0000
  C   C1499     1.0  0.65966  0.58901  0.55033  1.0000
  H   H2666     1.0  0.59533  0.64902  0.57266  1.0000
  H   H2667     1.0  0.68286  0.58016  0.92806  1.0000
  H   H2668     1.0  0.72406  0.37846  0.59791  1.0000
  C   C1500     1.0  0.58741  0.39283  0.61882  1.0000
  H   H2669     1.0  0.53017  0.54782  0.55232  1.0000
  H   H2670     1.0  0.51531  0.41573  0.87479  1.0000
  C   C1501     1.0  0.60551  0.49087  0.97788  1.0000
  N   N84       1.0  0.53043  0.39436  0.85536  1.0000
  C   C1502     1.0  0.52729  0.37780  0.83737  1.0000
  C   C1503     1.0  0.51399  0.40556  0.85647  1.0000
  C   C1504     1.0  0.54418  0.40441  0.83754  1.0000
  C   C1505     1.0  0.53727  0.39082  0.88785  1.0000
  C   C1506     1.0  0.54316  0.36506  0.83439  1.0000
  C   C1507     1.0  0.54778  0.42318  0.84913  1.0000
  C   C1508     1.0  0.68259  0.35443  0.81793  1.0000
  H   H2671     1.0  0.58951  0.37881  0.61336  1.0000
  H   H2672     1.0  0.54999  0.39868  0.54258  1.0000
  C   C1509     1.0  0.56116  0.43220  0.82818  1.0000
  H   H2673     1.0  0.52289  0.38113  0.81323  1.0000
  C   C1510     1.0  0.65357  0.65253  0.57293  1.0000
  H   H2674     1.0  0.67422  0.40766  0.64213  1.0000
  H   H2675     1.0  0.72835  0.41153  0.58473  1.0000
  H   H2676     1.0  0.54065  0.40542  0.81231  1.0000
  H   H2677     1.0  0.55703  0.39745  0.83841  1.0000
  H   H2678     1.0  0.55075  0.38523  0.88667  1.0000
  H   H2679     1.0  0.53865  0.40325  0.90078  1.0000
  H   H2680     1.0  0.55392  0.37104  0.82083  1.0000
  H   H2681     1.0  0.70880  0.36445  0.81077  1.0000
  H   H2682     1.0  0.55309  0.42274  0.87314  1.0000
  H   H2683     1.0  0.53583  0.43152  0.84917  1.0000
  H   H2684     1.0  0.51412  0.38619  0.91667  1.0000
  H   H2685     1.0  0.65062  0.66590  0.56392  1.0000
  H   H2686     1.0  0.55975  0.52049  0.56104  1.0000
  H   H2687     1.0  0.59398  0.41067  0.52943  1.0000
  C   C1511     1.0  0.57920  0.35988  0.50989  1.0000
  Fe  Fe173     1.0  0.69634  0.66247  0.80516  1.0000
  C   C1512     1.0  0.61053  0.43795  0.55797  1.0000
  H   H2688     1.0  0.55630  0.43333  0.80382  1.0000
  H   H2689     1.0  0.56356  0.44554  0.83712  1.0000
  H   H2690     1.0  0.57374  0.42483  0.82821  1.0000
  N   N85       1.0  0.64753  0.63887  0.55030  1.0000
  C   C1513     1.0  0.69499  0.40015  0.58943  1.0000
  C   C1514     1.0  0.62787  0.63771  0.55003  1.0000
  H   H2691     1.0  0.71982  0.64306  0.94414  1.0000
  C   C1515     1.0  0.65495  0.62138  0.56052  1.0000
  H   H2692     1.0  0.67400  0.38327  0.52696  1.0000
  S   S346      1.0  0.71982  0.35718  0.66056  1.0000
  H   H2693     1.0  0.67846  0.65702  0.52540  1.0000
  H   H2694     1.0  0.64793  0.61662  0.58175  1.0000
  Fe  Fe174     1.0  0.65478  0.34420  0.64135  1.0000
  H   H2695     1.0  0.67511  0.40613  0.53596  1.0000
  H   H2696     1.0  0.66805  0.65199  0.57494  1.0000
  C   C1516     1.0  0.60271  0.65469  0.77341  1.0000
  C   C1517     1.0  0.64629  0.65102  0.60675  1.0000
  C   C1518     1.0  0.67373  0.64510  0.51365  1.0000
  H   H2697     1.0  0.59001  0.43195  0.59011  1.0000
  C   C1519     1.0  0.53813  0.34840  0.81732  1.0000
  C   C1520     1.0  0.54449  0.61676  0.96424  1.0000
  H   H2698     1.0  0.66327  0.60917  0.51610  1.0000
  C   C1521     1.0  0.61781  0.65506  0.54324  1.0000
  H   H2699     1.0  0.53816  0.62589  0.94745  1.0000
  C   C1522     1.0  0.74128  0.62787  0.90183  1.0000
  C   C1523     1.0  0.53589  0.37398  0.93910  1.0000
  H   H2700     1.0  0.53919  0.38581  0.95263  1.0000
  H   H2701     1.0  0.74723  0.61582  0.89165  1.0000
  H   H2702     1.0  0.65879  0.57863  0.53236  1.0000
  C   C1524     1.0  0.61577  0.50591  0.97555  1.0000
  C   C1525     1.0  0.51694  0.48498  0.97010  1.0000
  C   C1526     1.0  0.69814  0.36513  0.82847  1.0000
  H   H2703     1.0  0.67210  0.35600  0.83554  1.0000
  C   C1527     1.0  0.75068  0.63102  0.93330  1.0000
  H   H2704     1.0  0.68081  0.63369  0.52367  1.0000
  H   H2705     1.0  0.59141  0.66566  0.54343  1.0000
  C   C1528     1.0  0.74833  0.34158  0.58393  1.0000
  H   H2706     1.0  0.64825  0.65669  0.51084  1.0000
  H   H2707     1.0  0.64848  0.63455  0.50027  1.0000
  H   H2708     1.0  0.69488  0.66318  0.96121  1.0000
  H   H2709     1.0  0.65897  0.35012  0.50275  1.0000
  H   H2710     1.0  0.56562  0.63196  0.98133  1.0000
  H   H2711     1.0  0.75202  0.39312  0.60774  1.0000
  H   H2712     1.0  0.55929  0.54064  0.50445  1.0000
  S   S347      1.0  0.63010  0.40836  0.49935  1.0000
  C   C1529     1.0  0.75217  0.39659  0.58246  1.0000
  H   H2713     1.0  0.66828  0.66358  0.62925  1.0000
  C   C1530     1.0  0.51557  0.52954  0.50480  1.0000
  C   C1531     1.0  0.65387  0.66508  0.62774  1.0000
  H   H2714     1.0  0.64840  0.66387  0.65173  1.0000
  C   C1532     1.0  0.68896  0.66126  0.93784  1.0000
  H   H2715     1.0  0.67453  0.66178  0.94044  1.0000
  C   C1533     1.0  0.50813  0.60273  0.65602  1.0000
  C   C1534     1.0  0.54195  0.51061  0.51228  1.0000
  H   H2716     1.0  0.55643  0.51097  0.50966  1.0000
  H   H2717     1.0  0.54147  0.55543  0.50288  1.0000
  H   H2718     1.0  0.54446  0.47442  0.50642  1.0000
  H   H2719     1.0  0.59732  0.47258  0.49473  1.0000
  H   H2720     1.0  0.50459  0.55175  0.53144  1.0000
  C   C1535     1.0  0.68770  0.33847  0.55625  1.0000
  H   H2721     1.0  0.72184  0.33827  0.60072  1.0000
  H   H2722     1.0  0.55806  0.85638  0.47310  1.0000
  Fe  Fe175     1.0  0.67002  0.68501  0.31237  1.0000
  S   S348      1.0  0.66098  0.71207  0.29540  1.0000
  H   H2723     1.0  0.57485  0.93233  0.44714  1.0000
  Fe  Fe176     1.0  0.59598  0.94074  0.05428  1.0000
  C   C1536     1.0  0.65787  0.67431  0.20818  1.0000
  S   S349      1.0  0.59701  0.97068  0.05523  1.0000
  Fe  Fe177     1.0  0.60569  0.90845  0.09650  1.0000
  S   S350      1.0  0.59767  0.88957  0.05905  1.0000
  S   S351      1.0  0.61610  0.90312  0.14652  1.0000
  Fe  Fe178     1.0  0.61109  0.90745  0.02468  1.0000
  H   H2724     1.0  0.52545  0.86794  0.43655  1.0000
  Fe  Fe179     1.0  0.57415  0.90757  0.05212  1.0000
  S   S352      1.0  0.54726  0.89526  0.04631  1.0000
  S   S353      1.0  0.62062  0.92525  0.06251  1.0000
  S   S354      1.0  0.58145  0.92545  0.09132  1.0000
  Fe  Fe180     1.0  0.66032  0.85339  0.34473  1.0000
  S   S355      1.0  0.67718  0.86392  0.30594  1.0000
  S   S356      1.0  0.64292  0.87390  0.36836  1.0000
  Fe  Fe181     1.0  0.67206  0.81546  0.33158  1.0000
  S   S357      1.0  0.68933  0.82383  0.29161  1.0000
  S   S358      1.0  0.67265  0.78794  0.35336  1.0000
  Fe  Fe182     1.0  0.69790  0.84523  0.32395  1.0000
  S   S359      1.0  0.72637  0.85393  0.32732  1.0000
  Fe  Fe183     1.0  0.66697  0.84194  0.27712  1.0000
  S   S360      1.0  0.65813  0.84432  0.22555  1.0000
  S   S361      1.0  0.68167  0.83630  0.36457  1.0000
  S   S362      1.0  0.64911  0.83197  0.31523  1.0000
  C   C1537     1.0  0.55123  0.86595  0.45778  1.0000
  C   C1538     1.0  0.74242  0.85038  0.35679  1.0000
  C   C1539     1.0  0.73844  0.84296  0.38592  1.0000
  H   H2725     1.0  0.60272  0.69612  0.26731  1.0000
  H   H2726     1.0  0.70045  0.83865  0.47142  1.0000
  H   H2727     1.0  0.72542  0.83827  0.39037  1.0000
  C   C1540     1.0  0.52624  0.90540  0.04729  1.0000
  C   C1541     1.0  0.52374  0.92266  0.05693  1.0000
  H   H2728     1.0  0.56107  0.95530  0.12718  1.0000
  H   H2729     1.0  0.53484  0.93007  0.06440  1.0000
  H   H2730     1.0  0.68194  0.85055  0.45616  1.0000
  C   C1542     1.0  0.63744  0.88682  0.47271  1.0000
  C   C1543     1.0  0.62967  0.89753  0.45002  1.0000
  C   C1544     1.0  0.63184  0.89359  0.41810  1.0000
  C   C1545     1.0  0.64145  0.87875  0.40862  1.0000
  C   C1546     1.0  0.64924  0.86807  0.43129  1.0000
  C   C1547     1.0  0.64744  0.87225  0.46319  1.0000
  H   H2731     1.0  0.62225  0.90899  0.45705  1.0000
  H   H2732     1.0  0.62606  0.90209  0.40059  1.0000
  H   H2733     1.0  0.65652  0.85655  0.42415  1.0000
  C   C1548     1.0  0.59262  0.86959  0.48416  1.0000
  C   C1549     1.0  0.62704  0.88617  0.16838  1.0000
  C   C1550     1.0  0.63241  0.88965  0.19920  1.0000
  C   C1551     1.0  0.64163  0.87701  0.21717  1.0000
  C   C1552     1.0  0.64570  0.86058  0.20460  1.0000
  C   C1553     1.0  0.64025  0.85706  0.17380  1.0000
  C   C1554     1.0  0.63098  0.86970  0.15585  1.0000
  H   H2734     1.0  0.62945  0.90227  0.20931  1.0000
  H   H2735     1.0  0.64569  0.88001  0.24072  1.0000
  H   H2736     1.0  0.64327  0.84445  0.16371  1.0000
  H   H2737     1.0  0.62691  0.86668  0.13233  1.0000
  C   C1555     1.0  0.50688  0.93032  0.05671  1.0000
  C   C1556     1.0  0.59505  0.98655  0.02462  1.0000
  N   N86       1.0  0.53576  0.98496  0.04054  1.0000
  H   H2738     1.0  0.59024  0.85297  0.44313  1.0000
  S   S363      1.0  0.68562  0.67729  0.35489  1.0000
  C   C1557     1.0  0.66479  0.73300  0.31175  1.0000
  C   C1558     1.0  0.66161  0.74802  0.29338  1.0000
  C   C1559     1.0  0.66401  0.76491  0.30558  1.0000
  C   C1560     1.0  0.66940  0.76700  0.33654  1.0000
  C   C1561     1.0  0.67260  0.75197  0.35489  1.0000
  C   C1562     1.0  0.67048  0.73507  0.34253  1.0000
  H   H2739     1.0  0.65725  0.74662  0.26953  1.0000
  H   H2740     1.0  0.66153  0.77632  0.29114  1.0000
  H   H2741     1.0  0.67674  0.75342  0.37888  1.0000
  H   H2742     1.0  0.67287  0.72368  0.35703  1.0000
  H   H2743     1.0  0.68723  0.91734  0.48954  1.0000
  N   N87       1.0  0.67299  0.90815  0.11692  1.0000
  C   C1563     1.0  0.68630  0.89569  0.13089  1.0000
  C   C1564     1.0  0.68213  0.92073  0.09528  1.0000
  C   C1565     1.0  0.66514  0.91868  0.14353  1.0000
  C   C1566     1.0  0.65851  0.89898  0.09994  1.0000
  C   C1567     1.0  0.66304  0.88130  0.08394  1.0000
  C   C1568     1.0  0.67955  0.88418  0.15825  1.0000
  C   C1569     1.0  0.65257  0.93389  0.13421  1.0000
  C   C1570     1.0  0.69176  0.91275  0.06672  1.0000
  C   C1571     1.0  0.70184  0.92672  0.04880  1.0000
  C   C1572     1.0  0.64821  0.87557  0.06273  1.0000
  C   C1573     1.0  0.69174  0.86865  0.16475  1.0000
  C   C1574     1.0  0.64359  0.94179  0.16297  1.0000
  H   H2744     1.0  0.69760  0.90306  0.14006  1.0000
  H   H2745     1.0  0.69196  0.88689  0.11291  1.0000
  H   H2746     1.0  0.67262  0.93023  0.08501  1.0000
  H   H2747     1.0  0.69162  0.92858  0.10878  1.0000
  H   H2748     1.0  0.67562  0.92430  0.15821  1.0000
  H   H2749     1.0  0.65746  0.91009  0.15936  1.0000
  H   H2750     1.0  0.64760  0.89605  0.11617  1.0000
  H   H2751     1.0  0.65264  0.90783  0.08204  1.0000
  H   H2752     1.0  0.66500  0.87092  0.10184  1.0000
  H   H2753     1.0  0.67505  0.88185  0.06961  1.0000
  H   H2754     1.0  0.67858  0.89199  0.18008  1.0000
  H   H2755     1.0  0.66643  0.87916  0.15315  1.0000
  H   H2756     1.0  0.64232  0.92926  0.11823  1.0000
  H   H2757     1.0  0.65976  0.94461  0.12260  1.0000
  H   H2758     1.0  0.70127  0.90244  0.07368  1.0000
  H   H2759     1.0  0.68218  0.90729  0.05019  1.0000
  C   C1575     1.0  0.62696  0.68291  0.25120  1.0000
  H   H2760     1.0  0.60487  0.67943  0.20050  1.0000
  H   H2761     1.0  0.63587  0.87442  0.07629  1.0000
  H   H2762     1.0  0.64619  0.88514  0.04342  1.0000
  H   H2763     1.0  0.65143  0.86266  0.05231  1.0000
  H   H2764     1.0  0.70507  0.87317  0.17030  1.0000
  H   H2765     1.0  0.68674  0.86115  0.18514  1.0000
  H   H2766     1.0  0.69231  0.85979  0.14428  1.0000
  H   H2767     1.0  0.63454  0.95247  0.15552  1.0000
  H   H2768     1.0  0.63584  0.93181  0.17557  1.0000
  H   H2769     1.0  0.65336  0.94724  0.17919  1.0000
  H   H2770     1.0  0.71190  0.93258  0.06397  1.0000
  C   C1576     1.0  0.62196  0.68255  0.16094  1.0000
  C   C1577     1.0  0.54998  0.96608  0.08449  1.0000
  C   C1578     1.0  0.73945  0.90468  0.40763  1.0000
  N   N88       1.0  0.70906  0.89004  0.41156  1.0000
  N   N89       1.0  0.72900  0.72945  0.31860  1.0000
  C   C1579     1.0  0.72302  0.72728  0.35204  1.0000
  C   C1580     1.0  0.72937  0.74869  0.31091  1.0000
  C   C1581     1.0  0.71655  0.71993  0.29756  1.0000
  H   H2771     1.0  0.61685  0.68246  0.31401  1.0000
  H   H2772     1.0  0.72062  0.85652  0.44135  1.0000
  H   H2773     1.0  0.60485  0.85905  0.39110  1.0000
  C   C1582     1.0  0.71805  0.72413  0.26206  1.0000
  C   C1583     1.0  0.71158  0.75852  0.31289  1.0000
  H   H2774     1.0  0.54933  0.99434  0.08121  1.0000
  H   H2775     1.0  0.55040  0.90295  0.42722  1.0000
  H   H2776     1.0  0.57431  0.97160  0.10867  1.0000
  C   C1584     1.0  0.70621  0.71251  0.24286  1.0000
  H   H2777     1.0  0.70910  0.73147  0.35441  1.0000
  H   H2778     1.0  0.73031  0.73605  0.36782  1.0000
  H   H2779     1.0  0.73798  0.75564  0.32737  1.0000
  H   H2780     1.0  0.73786  0.78997  0.45077  1.0000
  H   H2781     1.0  0.70275  0.72238  0.30474  1.0000
  H   H2782     1.0  0.71842  0.70553  0.30013  1.0000
  H   H2783     1.0  0.61697  0.85475  0.48939  1.0000
  H   H2784     1.0  0.59495  0.67498  0.30808  1.0000
  H   H2785     1.0  0.55573  0.95517  0.07067  1.0000
  H   H2786     1.0  0.56386  0.85539  0.41734  1.0000
  C   C1585     1.0  0.51160  0.89569  0.03862  1.0000
  H   H2787     1.0  0.71702  0.69927  0.35078  1.0000
  H   H2788     1.0  0.71787  0.69389  0.40743  1.0000
  H   H2789     1.0  0.71409  0.73786  0.25715  1.0000
  H   H2790     1.0  0.70123  0.75178  0.29987  1.0000
  H   H2791     1.0  0.53007  0.95751  0.03604  1.0000
  H   H2792     1.0  0.52609  0.85661  0.47352  1.0000
  H   H2793     1.0  0.53998  0.99752  0.46051  1.0000
  H   H2794     1.0  0.74692  0.70726  0.31610  1.0000
  H   H2795     1.0  0.54915  0.87837  0.47041  1.0000
  C   C1586     1.0  0.56071  0.96793  0.11431  1.0000
  H   H2796     1.0  0.51509  0.97609  0.07105  1.0000
  C   C1587     1.0  0.68392  0.90625  0.33684  1.0000
  H   H2797     1.0  0.73352  0.87791  0.39742  1.0000
  C   C1588     1.0  0.60839  0.67481  0.29827  1.0000
  H   H2798     1.0  0.69247  0.71369  0.25113  1.0000
  H   H2799     1.0  0.70672  0.71649  0.21786  1.0000
  C   C1589     1.0  0.53320  0.85863  0.45110  1.0000
  H   H2800     1.0  0.61706  0.69581  0.15478  1.0000
  H   H2801     1.0  0.58303  0.85375  0.37978  1.0000
  H   H2802     1.0  0.52865  0.89943  0.14565  1.0000
  C   C1590     1.0  0.64765  0.69187  0.21056  1.0000
  C   C1591     1.0  0.62034  0.70851  0.21676  1.0000
  H   H2803     1.0  0.73512  0.78676  0.40908  1.0000
  C   C1592     1.0  0.67640  0.67709  0.19609  1.0000
  H   H2804     1.0  0.69283  0.93719  0.04029  1.0000
  C   C1593     1.0  0.52424  0.88762  0.13313  1.0000
  H   H2805     1.0  0.68340  0.68634  0.21127  1.0000
  C   C1594     1.0  0.62692  0.72197  0.24088  1.0000
  C   C1595     1.0  0.61713  0.73941  0.23771  1.0000
  H   H2806     1.0  0.57202  0.67712  0.05507  1.0000
  H   H2807     1.0  0.52008  0.99833  0.07567  1.0000
  H   H2808     1.0  0.73326  0.80829  0.42539  1.0000
  H   H2809     1.0  0.65454  0.69953  0.22865  1.0000
  H   H2810     1.0  0.64946  0.69933  0.18840  1.0000
  H   H2811     1.0  0.70850  0.92076  0.02825  1.0000
  H   H2812     1.0  0.60589  0.70781  0.21891  1.0000
  H   H2813     1.0  0.50509  0.94375  0.06383  1.0000
  C   C1596     1.0  0.71670  0.70751  0.39852  1.0000
  H   H2814     1.0  0.73520  0.75086  0.28733  1.0000
  H   H2815     1.0  0.62272  0.71434  0.19328  1.0000
  H   H2816     1.0  0.50586  0.87969  0.16815  1.0000
  H   H2817     1.0  0.55269  0.93471  0.43379  1.0000
  S   S364      1.0  0.58711  0.92390  0.01477  1.0000
  C   C1597     1.0  0.57657  0.89582  0.44478  1.0000
  H   H2818     1.0  0.70740  0.75967  0.33770  1.0000
  H   H2819     1.0  0.52404  0.97024  0.00324  1.0000
  H   H2820     1.0  0.62507  0.71735  0.26527  1.0000
  H   H2821     1.0  0.64097  0.72458  0.23714  1.0000
  H   H2822     1.0  0.61904  0.74504  0.21396  1.0000
  H   H2823     1.0  0.60298  0.73771  0.24224  1.0000
  H   H2824     1.0  0.62222  0.74876  0.25512  1.0000
  H   H2825     1.0  0.59682  0.89021  0.39756  1.0000
  H   H2826     1.0  0.60548  0.87005  0.44016  1.0000
  H   H2827     1.0  0.57209  0.89482  0.46941  1.0000
  H   H2828     1.0  0.68354  0.88810  0.46491  1.0000
  H   H2829     1.0  0.60684  0.87926  0.34452  1.0000
  C   C1598     1.0  0.56202  0.92583  0.44601  1.0000
  H   H2830     1.0  0.65365  0.86406  0.48058  1.0000
  C   C1599     1.0  0.72867  0.88804  0.41402  1.0000
  H   H2831     1.0  0.70266  0.71132  0.39841  1.0000
  C   C1600     1.0  0.70266  0.90259  0.43652  1.0000
  C   C1601     1.0  0.70141  0.87207  0.41486  1.0000
  H   H2832     1.0  0.58543  0.87227  0.33262  1.0000
  C   C1602     1.0  0.54997  0.98317  0.06468  1.0000
  H   H2833     1.0  0.73243  0.88337  0.43777  1.0000
  C   C1603     1.0  0.68394  0.89990  0.44981  1.0000
  C   C1604     1.0  0.70714  0.86170  0.44453  1.0000
  C   C1605     1.0  0.71291  0.77702  0.29961  1.0000
  C   C1606     1.0  0.68577  0.89890  0.37001  1.0000
  H   H2834     1.0  0.59866  0.88233  0.48950  1.0000
  C   C1607     1.0  0.61919  0.67873  0.19629  1.0000
  C   C1608     1.0  0.69546  0.84610  0.45090  1.0000
  H   H2835     1.0  0.71140  0.90210  0.45726  1.0000
  H   H2836     1.0  0.70512  0.86396  0.39420  1.0000
  H   H2837     1.0  0.68695  0.87262  0.41433  1.0000
  H   H2838     1.0  0.70346  0.91628  0.42777  1.0000
  H   H2839     1.0  0.71172  0.88863  0.36124  1.0000
  C   C1609     1.0  0.56362  0.90858  0.42830  1.0000
  H   H2840     1.0  0.68850  0.91993  0.33579  1.0000
  H   H2841     1.0  0.71065  0.69868  0.24465  1.0000
  H   H2842     1.0  0.69159  0.89829  0.31987  1.0000
  H   H2843     1.0  0.63593  0.68156  0.15426  1.0000
  H   H2844     1.0  0.67411  0.89816  0.43135  1.0000
  C   C1610     1.0  0.74706  0.72177  0.31374  1.0000
  H   H2845     1.0  0.75155  0.72419  0.28938  1.0000
  H   H2846     1.0  0.67725  0.92749  0.45548  1.0000
  H   H2847     1.0  0.53671  0.96223  0.09174  1.0000
  H   H2848     1.0  0.67927  0.88607  0.37067  1.0000
  H   H2849     1.0  0.67884  0.90822  0.38556  1.0000
  H   H2850     1.0  0.72254  0.78469  0.31292  1.0000
  H   H2851     1.0  0.63561  0.68979  0.26776  1.0000
  H   H2852     1.0  0.70002  0.78376  0.30151  1.0000
  H   H2853     1.0  0.56808  0.91173  0.40423  1.0000
  H   H2854     1.0  0.60337  0.85679  0.33460  1.0000
  H   H2855     1.0  0.67616  0.68221  0.17174  1.0000
  H   H2856     1.0  0.70711  0.87009  0.46559  1.0000
  C   C1611     1.0  0.53581  0.67399  0.99356  1.0000
  C   C1612     1.0  0.67806  0.91539  0.46987  1.0000
  H   H2857     1.0  0.71062  0.91034  0.37617  1.0000
  H   H2858     1.0  0.73808  0.70385  0.36674  1.0000
  N   N90       1.0  0.57882  0.87803  0.43000  1.0000
  H   H2859     1.0  0.55480  0.97801  0.12983  1.0000
  C   C1613     1.0  0.58588  0.88080  0.39724  1.0000
  C   C1614     1.0  0.56172  0.86865  0.42720  1.0000
  H   H2860     1.0  0.56300  0.98423  0.05357  1.0000
  C   C1615     1.0  0.59279  0.86425  0.37992  1.0000
  N   N91       1.0  0.62854  0.69051  0.21869  1.0000
  C   C1616     1.0  0.59733  0.86847  0.34586  1.0000
  C   C1617     1.0  0.72432  0.70847  0.36548  1.0000
  H   H2861     1.0  0.72388  0.71619  0.41454  1.0000
  C   C1618     1.0  0.51872  0.98798  0.05766  1.0000
  H   H2862     1.0  0.57574  0.88685  0.38194  1.0000
  H   H2863     1.0  0.55307  0.87545  0.41006  1.0000
  C   C1619     1.0  0.59198  0.86710  0.44813  1.0000
  C   C1620     1.0  0.60830  0.68273  0.26539  1.0000
  H   H2864     1.0  0.54651  0.93478  0.00472  1.0000
  H   H2865     1.0  0.71670  0.77670  0.27451  1.0000
  H   H2866     1.0  0.66998  0.90609  0.32985  1.0000
  H   H2867     1.0  0.51338  0.88228  0.03130  1.0000
  C   C1621     1.0  0.70519  0.89707  0.37920  1.0000
  H   H2868     1.0  0.52497  0.89004  0.10754  1.0000
  H   H2869     1.0  0.58946  0.90234  0.44602  1.0000
  H   H2870     1.0  0.55318  0.99802  0.00839  1.0000
  H   H2871     1.0  0.73156  0.72208  0.25338  1.0000
  H   H2872     1.0  0.54838  0.67962  0.00093  1.0000
  S   S365      1.0  0.68921  0.67304  0.27872  1.0000
  H   H2873     1.0  0.53331  0.87662  0.13880  1.0000
  H   H2874     1.0  0.62371  0.99715  0.46596  1.0000
  H   H2875     1.0  0.55706  0.92358  0.47016  1.0000
  H   H2876     1.0  0.73441  0.91589  0.42149  1.0000
  H   H2877     1.0  0.73906  0.90818  0.38240  1.0000
  H   H2878     1.0  0.59948  0.67480  0.25089  1.0000
  H   H2879     1.0  0.53434  0.84589  0.43887  1.0000
  C   C1622     1.0  0.61338  0.99920  0.48295  1.0000
  H   H2880     1.0  0.56241  0.96141  0.01898  1.0000
  H   H2881     1.0  0.69541  0.83723  0.43043  1.0000
  C   C1623     1.0  0.50566  0.88295  0.14279  1.0000
  H   H2882     1.0  0.52681  0.67494  0.01375  1.0000
  H   H2883     1.0  0.66884  0.92114  0.00095  1.0000
  C   C1624     1.0  0.55104  0.96284  0.00324  1.0000
  C   C1625     1.0  0.75116  0.84225  0.40972  1.0000
  C   C1626     1.0  0.74037  0.79559  0.42719  1.0000
  C   C1627     1.0  0.53999  0.99999  0.01900  1.0000
  C   C1628     1.0  0.53434  0.96861  0.02125  1.0000
  H   H2884     1.0  0.61416  0.67254  0.11570  1.0000
  H   H2885     1.0  0.66492  0.91289  0.47983  1.0000
  H   H2886     1.0  0.53084  0.00047  0.99889  1.0000
  H   H2887     1.0  0.74776  0.83716  0.43255  1.0000
  C   C1629     1.0  0.59186  0.98197  0.99355  1.0000
  H   H2888     1.0  0.63673  0.84702  0.54411  1.0000
  Fe  Fe184     1.0  0.66687  0.68699  0.82388  1.0000
  S   S366      1.0  0.66415  0.71380  0.84667  1.0000
  H   H2889     1.0  0.65684  0.83574  0.50435  1.0000
  Fe  Fe185     1.0  0.59599  0.94201  0.55467  1.0000
  C   C1630     1.0  0.60406  0.82020  0.82240  1.0000
  S   S367      1.0  0.59042  0.97158  0.55394  1.0000
  Fe  Fe186     1.0  0.59855  0.91026  0.60084  1.0000
  S   S368      1.0  0.59436  0.89165  0.56135  1.0000
  S   S369      1.0  0.59850  0.89684  0.64926  1.0000
  Fe  Fe187     1.0  0.61339  0.90780  0.53425  1.0000
  C   C1631     1.0  0.54841  0.94531  0.98711  1.0000
  Fe  Fe188     1.0  0.57366  0.91015  0.54364  1.0000
  S   S370      1.0  0.54820  0.89916  0.52556  1.0000
  S   S371      1.0  0.61858  0.92597  0.57461  1.0000
  S   S372      1.0  0.57635  0.92778  0.58465  1.0000
  Fe  Fe189     1.0  0.66020  0.84049  0.84833  1.0000
  S   S373      1.0  0.67552  0.86271  0.82819  1.0000
  S   S374      1.0  0.64291  0.83989  0.89171  1.0000
  Fe  Fe190     1.0  0.67363  0.81452  0.80016  1.0000
  S   S375      1.0  0.69005  0.83489  0.77653  1.0000
  S   S376      1.0  0.67234  0.78741  0.77850  1.0000
  Fe  Fe191     1.0  0.69762  0.84294  0.82521  1.0000
  S   S377      1.0  0.72576  0.85099  0.83475  1.0000
  Fe  Fe192     1.0  0.66674  0.85309  0.78085  1.0000
  S   S378      1.0  0.66121  0.87202  0.73958  1.0000
  S   S379      1.0  0.68281  0.82128  0.84834  1.0000
  S   S380      1.0  0.64984  0.83210  0.80144  1.0000
  H   H2890     1.0  0.70998  0.76616  0.81886  1.0000
  C   C1632     1.0  0.74187  0.84492  0.86283  1.0000
  C   C1633     1.0  0.73840  0.83378  0.88812  1.0000
  H   H2891     1.0  0.61206  0.84616  0.83698  1.0000
  H   H2892     1.0  0.61158  0.75928  0.81006  1.0000
  H   H2893     1.0  0.72567  0.82802  0.89044  1.0000
  C   C1634     1.0  0.52726  0.90699  0.53733  1.0000
  C   C1635     1.0  0.52524  0.92145  0.55694  1.0000
  H   H2894     1.0  0.56374  0.94967  0.68159  1.0000
  H   H2895     1.0  0.53657  0.92856  0.56428  1.0000
  C   C1636     1.0  0.65437  0.78977  0.90847  1.0000
  C   C1637     1.0  0.63274  0.88557  0.95911  1.0000
  C   C1638     1.0  0.62675  0.86885  0.96618  1.0000
  C   C1639     1.0  0.62977  0.85504  0.94507  1.0000
  C   C1640     1.0  0.63875  0.85783  0.91675  1.0000
  C   C1641     1.0  0.64435  0.87463  0.90932  1.0000
  C   C1642     1.0  0.64136  0.88841  0.93047  1.0000
  H   H2896     1.0  0.53416  0.87396  0.67269  1.0000
  H   H2897     1.0  0.62531  0.84209  0.95092  1.0000
  H   H2898     1.0  0.65103  0.87700  0.88741  1.0000
  H   H2899     1.0  0.64565  0.90140  0.92460  1.0000
  C   C1643     1.0  0.61610  0.89020  0.67427  1.0000
  C   C1644     1.0  0.61309  0.87769  0.69793  1.0000
  C   C1645     1.0  0.62660  0.87202  0.71823  1.0000
  C   C1646     1.0  0.64336  0.87890  0.71534  1.0000
  C   C1647     1.0  0.64633  0.89149  0.69177  1.0000
  C   C1648     1.0  0.63285  0.89706  0.67137  1.0000
  H   H2900     1.0  0.60020  0.87232  0.70062  1.0000
  H   H2901     1.0  0.62404  0.86238  0.73618  1.0000
  H   H2902     1.0  0.65917  0.89700  0.68933  1.0000
  H   H2903     1.0  0.63537  0.90689  0.65373  1.0000
  H   H2904     1.0  0.59527  0.85055  0.58108  1.0000
  C   C1649     1.0  0.62303  0.76695  0.80251  1.0000
  H   H2905     1.0  0.63833  0.77273  0.85895  1.0000
  H   H2906     1.0  0.65668  0.82101  0.53724  1.0000
  C   C1650     1.0  0.66041  0.83430  0.52939  1.0000
  C   C1651     1.0  0.66717  0.73403  0.82726  1.0000
  C   C1652     1.0  0.66728  0.73538  0.79465  1.0000
  C   C1653     1.0  0.66914  0.75181  0.78015  1.0000
  C   C1654     1.0  0.67107  0.76701  0.79802  1.0000
  C   C1655     1.0  0.67151  0.76559  0.83063  1.0000
  C   C1656     1.0  0.66937  0.74920  0.84516  1.0000
  H   H2907     1.0  0.66559  0.72382  0.78060  1.0000
  H   H2908     1.0  0.66882  0.75278  0.75490  1.0000
  H   H2909     1.0  0.67338  0.77714  0.84461  1.0000
  H   H2910     1.0  0.66944  0.74823  0.87042  1.0000
  H   H2911     1.0  0.67840  0.87160  0.57002  1.0000
  C   C1657     1.0  0.54091  0.98233  0.51662  1.0000
  H   H2912     1.0  0.69485  0.89945  0.82870  1.0000
  H   H2913     1.0  0.61201  0.82078  0.80061  1.0000
  H   H2914     1.0  0.68304  0.93212  0.97365  1.0000
  H   H2915     1.0  0.60219  0.78442  0.88469  1.0000
  S   S381      1.0  0.59233  0.92475  0.51264  1.0000
  H   H2916     1.0  0.55780  0.94787  0.64102  1.0000
  H   H2917     1.0  0.59024  0.83699  0.61441  1.0000
  H   H2918     1.0  0.55502  0.91940  0.69158  1.0000
  C   C1658     1.0  0.54763  0.91289  0.64366  1.0000
  C   C1659     1.0  0.53838  0.88766  0.67637  1.0000
  H   H2919     1.0  0.71228  0.78844  0.85923  1.0000
  H   H2920     1.0  0.74838  0.82226  0.93083  1.0000
  C   C1660     1.0  0.51231  0.89808  0.52769  1.0000
  H   H2921     1.0  0.74040  0.70628  0.81806  1.0000
  H   H2922     1.0  0.54245  0.86878  0.56662  1.0000
  H   H2923     1.0  0.69418  0.90236  0.98512  1.0000
  H   H2924     1.0  0.63062  0.80427  0.90156  1.0000
  H   H2925     1.0  0.59298  0.84591  0.81255  1.0000
  N   N92       1.0  0.53413  0.89893  0.64816  1.0000
  C   C1661     1.0  0.58558  0.78204  0.84508  1.0000
  H   H2926     1.0  0.62783  0.78145  0.90964  1.0000
  H   H2927     1.0  0.60905  0.79100  0.79622  1.0000
  H   H2928     1.0  0.62122  0.83358  0.59908  1.0000
  H   H2929     1.0  0.74091  0.75584  0.81645  1.0000
  H   H2930     1.0  0.55240  0.88535  0.73702  1.0000
  H   H2931     1.0  0.57210  0.77043  0.88501  1.0000
  C   C1662     1.0  0.59570  0.98796  0.52582  1.0000
  C   C1663     1.0  0.72347  0.77936  0.85500  1.0000
  H   H2932     1.0  0.63477  0.76135  0.81388  1.0000
  C   C1664     1.0  0.56246  0.94043  0.66181  1.0000
  H   H2933     1.0  0.64588  0.79390  0.84886  1.0000
  H   H2934     1.0  0.74321  0.68217  0.90589  1.0000
  H   H2935     1.0  0.59137  0.83932  0.85303  1.0000
  H   H2936     1.0  0.51372  0.88690  0.51247  1.0000
  C   C1665     1.0  0.53717  0.00172  0.51054  1.0000
  H   H2937     1.0  0.58593  0.77988  0.81947  1.0000
  H   H2938     1.0  0.59108  0.96834  0.98727  1.0000
  H   H2939     1.0  0.56007  0.77028  0.84891  1.0000
  C   C1666     1.0  0.68018  0.89738  0.58863  1.0000
  S   S382      1.0  0.67983  0.68169  0.77762  1.0000
  H   H2940     1.0  0.67715  0.90472  0.61041  1.0000
  H   H2941     1.0  0.74852  0.88110  0.96817  1.0000
  H   H2942     1.0  0.60764  0.81306  0.87117  1.0000
  H   H2943     1.0  0.67346  0.90385  0.56860  1.0000
  H   H2944     1.0  0.63177  0.79382  0.80050  1.0000
  H   H2945     1.0  0.65511  0.86118  0.54015  1.0000
  C   C1667     1.0  0.53449  0.88752  0.61938  1.0000
  H   H2946     1.0  0.69448  0.89779  0.58445  1.0000
  C   C1668     1.0  0.55252  0.87967  0.60994  1.0000
  H   H2947     1.0  0.54446  0.85328  0.59852  1.0000
  H   H2948     1.0  0.56086  0.90698  0.64064  1.0000
  C   C1669     1.0  0.67381  0.92118  0.97650  1.0000
  C   C1670     1.0  0.60366  0.85526  0.49975  1.0000
  H   H2949     1.0  0.62687  0.81763  0.84997  1.0000
  H   H2950     1.0  0.55281  0.88662  0.67938  1.0000
  H   H2951     1.0  0.55983  0.87471  0.63056  1.0000
  H   H2952     1.0  0.56041  0.88986  0.59820  1.0000
  H   H2953     1.0  0.67475  0.83570  0.53148  1.0000
  H   H2954     1.0  0.73003  0.77672  0.87766  1.0000
  H   H2955     1.0  0.53628  0.86855  0.73181  1.0000
  H   H2956     1.0  0.55515  0.97947  0.51514  1.0000
  N   N93       1.0  0.72726  0.73159  0.82235  1.0000
  C   C1671     1.0  0.73218  0.74946  0.83391  1.0000
  H   H2957     1.0  0.74168  0.76494  0.96681  1.0000
  C   C1672     1.0  0.71777  0.73411  0.79172  1.0000
  C   C1673     1.0  0.71514  0.72240  0.84471  1.0000
  C   C1674     1.0  0.72140  0.72043  0.87885  1.0000
  C   C1675     1.0  0.71208  0.71713  0.77521  1.0000
  H   H2958     1.0  0.60789  0.76645  0.86087  1.0000
  C   C1676     1.0  0.70723  0.71227  0.89929  1.0000
  C   C1677     1.0  0.70558  0.72090  0.74209  1.0000
  H   H2959     1.0  0.70102  0.70862  0.73135  1.0000
  H   H2960     1.0  0.53705  0.93261  0.67665  1.0000
  H   H2961     1.0  0.72593  0.74177  0.77507  1.0000
  H   H2962     1.0  0.70553  0.74185  0.79505  1.0000
  H   H2963     1.0  0.70212  0.72896  0.84500  1.0000
  H   H2964     1.0  0.71254  0.70891  0.83645  1.0000
  H   H2965     1.0  0.72457  0.73320  0.88929  1.0000
  H   H2966     1.0  0.73299  0.71166  0.87986  1.0000
  H   H2967     1.0  0.70739  0.75675  0.85739  1.0000
  H   H2968     1.0  0.58721  0.99136  0.94650  1.0000
  C   C1678     1.0  0.58968  0.99507  0.97044  1.0000
  C   C1679     1.0  0.50849  0.92659  0.56749  1.0000
  H   H2969     1.0  0.70349  0.69935  0.89001  1.0000
  H   H2970     1.0  0.71212  0.71044  0.92350  1.0000
  H   H2971     1.0  0.69543  0.72088  0.90003  1.0000
  C   C1680     1.0  0.53821  0.88276  0.73522  1.0000
  H   H2972     1.0  0.73989  0.74848  0.85575  1.0000
  H   H2973     1.0  0.50709  0.93766  0.58296  1.0000
  C   C1681     1.0  0.71688  0.76243  0.84071  1.0000
  N   N94       1.0  0.69927  0.88697  0.92475  1.0000
  C   C1682     1.0  0.69987  0.88669  0.88942  1.0000
  C   C1683     1.0  0.69044  0.87077  0.93727  1.0000
  C   C1684     1.0  0.68842  0.90275  0.93430  1.0000
  C   C1685     1.0  0.71716  0.88889  0.93876  1.0000
  C   C1686     1.0  0.73111  0.87505  0.92947  1.0000
  C   C1687     1.0  0.70824  0.90272  0.87324  1.0000
  H   H2974     1.0  0.71625  0.72621  0.72735  1.0000
  C   C1688     1.0  0.69295  0.85359  0.91855  1.0000
  C   C1689     1.0  0.68617  0.83790  0.93692  1.0000
  C   C1690     1.0  0.53021  0.89322  0.70820  1.0000
  C   C1691     1.0  0.70836  0.90068  0.83767  1.0000
  C   C1692     1.0  0.62529  0.76429  0.76729  1.0000
  H   H2975     1.0  0.68638  0.88549  0.88017  1.0000
  H   H2976     1.0  0.70708  0.87505  0.88055  1.0000
  H   H2977     1.0  0.55427  0.97248  0.98472  1.0000
  H   H2978     1.0  0.67605  0.87277  0.93795  1.0000
  H   H2979     1.0  0.67623  0.90351  0.92024  1.0000
  H   H2980     1.0  0.69549  0.91501  0.92908  1.0000
  H   H2981     1.0  0.72246  0.90200  0.93319  1.0000
  C   C1693     1.0  0.68285  0.90371  0.96932  1.0000
  H   H2982     1.0  0.57557  0.93469  0.65674  1.0000
  H   H2983     1.0  0.72778  0.86218  0.93965  1.0000
  H   H2984     1.0  0.70083  0.91490  0.87852  1.0000
  H   H2985     1.0  0.72196  0.90422  0.88075  1.0000
  C   C1694     1.0  0.57324  0.76863  0.85930  1.0000
  C   C1695     1.0  0.74344  0.72045  0.81597  1.0000
  H   H2986     1.0  0.68545  0.85444  0.89641  1.0000
  H   H2987     1.0  0.70674  0.85096  0.91245  1.0000
  C   C1696     1.0  0.54962  0.92612  0.67062  1.0000
  H   H2988     1.0  0.67217  0.83987  0.94303  1.0000
  H   H2989     1.0  0.75342  0.89238  0.93183  1.0000
  C   C1697     1.0  0.74759  0.67602  0.88446  1.0000
  H   H2990     1.0  0.63662  0.77175  0.75837  1.0000
  H   H2991     1.0  0.56012  0.94197  0.97285  1.0000
  H   H2992     1.0  0.69450  0.73040  0.74254  1.0000
  H   H2993     1.0  0.65051  0.67831  0.61865  1.0000
  H   H2994     1.0  0.71431  0.91232  0.82659  1.0000
  H   H2995     1.0  0.53399  0.97414  0.49941  1.0000
  S   S383      1.0  0.63542  0.89138  0.51308  1.0000
  H   H2996     1.0  0.53694  0.94592  0.97136  1.0000
  N   N95       1.0  0.64737  0.85973  0.60550  1.0000
  C   C1698     1.0  0.65440  0.87744  0.59671  1.0000
  C   C1699     1.0  0.62783  0.86145  0.60226  1.0000
  C   C1700     1.0  0.65188  0.85630  0.63961  1.0000
  C   C1701     1.0  0.65469  0.84579  0.58412  1.0000
  C   C1702     1.0  0.65088  0.84825  0.54875  1.0000
  C   C1703     1.0  0.67445  0.87843  0.59182  1.0000
  C   C1704     1.0  0.65560  0.83705  0.64939  1.0000
  C   C1705     1.0  0.61715  0.84537  0.61231  1.0000
  C   C1706     1.0  0.59771  0.84851  0.60642  1.0000
  C   C1707     1.0  0.55058  0.86465  0.58685  1.0000
  H   H2997     1.0  0.54484  0.92036  0.62175  1.0000
  C   C1708     1.0  0.65809  0.83534  0.68474  1.0000
  H   H2998     1.0  0.65056  0.88716  0.61492  1.0000
  H   H2999     1.0  0.64823  0.88256  0.57493  1.0000
  H   H3000     1.0  0.62291  0.87267  0.61648  1.0000
  H   H3001     1.0  0.62416  0.86508  0.57791  1.0000
  H   H3002     1.0  0.64137  0.86145  0.65520  1.0000
  H   H3003     1.0  0.66344  0.86373  0.64720  1.0000
  H   H3004     1.0  0.66904  0.84449  0.58731  1.0000
  H   H3005     1.0  0.64957  0.83277  0.59044  1.0000
  H   H3006     1.0  0.61336  0.76859  0.75460  1.0000
  H   H3007     1.0  0.60697  0.00041  0.59046  1.0000
  H   H3008     1.0  0.68174  0.87232  0.61145  1.0000
  C   C1709     1.0  0.60868  0.98540  0.50315  1.0000
  H   H3009     1.0  0.66780  0.83222  0.63802  1.0000
  H   H3010     1.0  0.64479  0.82842  0.64269  1.0000
  H   H3011     1.0  0.65440  0.79230  0.93403  1.0000
  H   H3012     1.0  0.61870  0.84284  0.63773  1.0000
  H   H3013     1.0  0.59293  0.86014  0.61955  1.0000
  H   H3014     1.0  0.62773  0.75023  0.76242  1.0000
  H   H3015     1.0  0.52948  0.89491  0.59878  1.0000
  H   H3016     1.0  0.71614  0.88897  0.83071  1.0000
  H   H3017     1.0  0.72207  0.67711  0.86301  1.0000
  H   H3018     1.0  0.72282  0.70731  0.77350  1.0000
  H   H3019     1.0  0.68743  0.82597  0.92240  1.0000
  H   H3020     1.0  0.66095  0.82151  0.69106  1.0000
  H   H3021     1.0  0.66920  0.84337  0.69255  1.0000
  H   H3022     1.0  0.64611  0.83960  0.69744  1.0000
  H   H3023     1.0  0.66006  0.77657  0.90421  1.0000
  H   H3024     1.0  0.52716  0.69929  0.97598  1.0000
  C   C1710     1.0  0.59987  0.83903  0.83191  1.0000
  H   H3025     1.0  0.69430  0.86828  0.96200  1.0000
  H   H3026     1.0  0.66249  0.92338  0.96076  1.0000
  H   H3027     1.0  0.61543  0.97292  0.50170  1.0000
  H   H3028     1.0  0.70118  0.71123  0.78850  1.0000
  C   C1711     1.0  0.60391  0.78049  0.85983  1.0000
  H   H3029     1.0  0.69381  0.83590  0.95867  1.0000
  H   H3030     1.0  0.66261  0.79973  0.89688  1.0000
  H   H3031     1.0  0.57802  0.75514  0.85438  1.0000
  H   H3032     1.0  0.56361  0.86059  0.57786  1.0000
  H   H3033     1.0  0.52548  0.87637  0.62241  1.0000
  H   H3034     1.0  0.57988  0.79516  0.84994  1.0000
  C   C1712     1.0  0.63570  0.79100  0.89623  1.0000
  H   H3035     1.0  0.59166  0.81373  0.81687  1.0000
  C   C1713     1.0  0.63502  0.78684  0.86070  1.0000
  N   N96       1.0  0.61800  0.79109  0.84447  1.0000
  C   C1714     1.0  0.62040  0.78661  0.81030  1.0000
  C   C1715     1.0  0.61440  0.81047  0.84849  1.0000
  H   H3036     1.0  0.53201  0.90723  0.71318  1.0000
  C   C1716     1.0  0.52852  0.68566  0.96748  1.0000
  H   H3037     1.0  0.71639  0.88843  0.96470  1.0000
  H   H3038     1.0  0.67347  0.89328  0.97528  1.0000
  S   S384      1.0  0.63148  0.90285  0.98641  1.0000
  H   H3039     1.0  0.60488  0.85803  0.52509  1.0000
  H   H3040     1.0  0.53636  0.97873  0.54046  1.0000
  C   C1717     1.0  0.74189  0.77750  0.95371  1.0000
  H   H3041     1.0  0.51598  0.89081  0.70831  1.0000
  H   H3042     1.0  0.53743  0.68556  0.94689  1.0000
  H   H3043     1.0  0.53185  0.88667  0.75758  1.0000
  H   H3044     1.0  0.73015  0.77831  0.93864  1.0000
  C   C1718     1.0  0.75136  0.83043  0.91087  1.0000
  H   H3045     1.0  0.51544  0.68114  0.96022  1.0000
  H   H3046     1.0  0.51477  0.91542  0.67155  1.0000
  H   H3047     1.0  0.51483  0.91737  0.63064  1.0000
  H   H3048     1.0  0.74130  0.78852  0.97054  1.0000
  H   H3049     1.0  0.73246  0.87391  0.90375  1.0000
  C   C1719     1.0  0.51634  0.90762  0.64994  1.0000
  H   H3050     1.0  0.73272  0.78589  0.83879  1.0000
  C   C1720     1.0  0.73554  0.67312  0.86022  1.0000
  C   C1721     1.0  0.74897  0.87990  0.94229  1.0000
  H   H3051     1.0  0.74794  0.72221  0.79131  1.0000
  H   H3052     1.0  0.62016  0.86649  0.98821  1.0000
  H   H3053     1.0  0.52296  0.00404  0.51306  1.0000
  H   H3054     1.0  0.57957  0.86961  0.49527  1.0000
  H   H3055     1.0  0.59745  0.84235  0.49696  1.0000
  H   H3056     1.0  0.69292  0.67204  0.92199  1.0000
  H   H3057     1.0  0.95887  0.04974  0.20438  1.0000
  H   H3058     1.0  0.90855  0.31299  0.14456  1.0000
  Fe  Fe193     1.0  0.84657  0.32389  0.07695  1.0000
  S   S385      1.0  0.85330  0.29710  0.09795  1.0000
  H   H3059     1.0  0.90392  0.31875  0.23515  1.0000
  Fe  Fe194     1.0  0.84335  0.19519  0.04825  1.0000
  S   S386      1.0  0.82320  0.17852  0.02505  1.0000
  S   S387      1.0  0.84561  0.22328  0.02994  1.0000
  Fe  Fe195     1.0  0.85437  0.16487  0.09182  1.0000
  S   S388      1.0  0.83399  0.14699  0.07289  1.0000
  S   S389      1.0  0.87642  0.15737  0.12524  1.0000
  Fe  Fe196     1.0  0.84328  0.15654  0.02528  1.0000
  H   H3060     1.0  0.99077  0.05533  0.29318  1.0000
  Fe  Fe197     1.0  0.81582  0.17050  0.07416  1.0000
  S   S390      1.0  0.78767  0.17663  0.08969  1.0000
  S   S391      1.0  0.86389  0.17388  0.04453  1.0000
  S   S392      1.0  0.83568  0.18770  0.09708  1.0000
  Fe  Fe198     1.0  0.90531  0.09739  0.34772  1.0000
  S   S393      1.0  0.91364  0.11533  0.30814  1.0000
  S   S394      1.0  0.89759  0.10308  0.39934  1.0000
  Fe  Fe199     1.0  0.91056  0.06424  0.30602  1.0000
  S   S395      1.0  0.91877  0.08003  0.26450  1.0000
  S   S396      1.0  0.90936  0.03431  0.30773  1.0000
  Fe  Fe200     1.0  0.93514  0.09523  0.29839  1.0000
  S   S397      1.0  0.96291  0.10045  0.28017  1.0000
  Fe  Fe201     1.0  0.89693  0.09861  0.27714  1.0000
  S   S398      1.0  0.87518  0.10542  0.24240  1.0000
  S   S399      1.0  0.92792  0.07844  0.33952  1.0000
  S   S400      1.0  0.88759  0.08175  0.31711  1.0000
  C   C1722     1.0  0.98370  0.09455  0.29597  1.0000
  H   H3061     1.0  0.87923  0.00555  0.17338  1.0000
  C   C1723     1.0  0.98590  0.08993  0.32743  1.0000
  H   H3062     1.0  0.86727  0.27932  0.39523  1.0000
  H   H3063     1.0  0.97468  0.08960  0.34284  1.0000
  C   C1724     1.0  0.90886  0.01875  0.27694  1.0000
  C   C1725     1.0  0.90948  0.02367  0.24542  1.0000
  C   C1726     1.0  0.90520  0.32981  0.21838  1.0000
  H   H3064     1.0  0.91061  0.03730  0.23931  1.0000
  H   H3065     1.0  0.93270  0.11600  0.12850  1.0000
  C   C1727     1.0  0.87598  0.14254  0.15720  1.0000
  C   C1728     1.0  0.86170  0.13185  0.16296  1.0000
  C   C1729     1.0  0.86172  0.12049  0.18905  1.0000
  C   C1730     1.0  0.87610  0.11956  0.20941  1.0000
  C   C1731     1.0  0.89057  0.12993  0.20313  1.0000
  C   C1732     1.0  0.89046  0.14139  0.17719  1.0000
  H   H3066     1.0  0.85068  0.13236  0.14729  1.0000
  H   H3067     1.0  0.85051  0.11246  0.19357  1.0000
  H   H3068     1.0  0.90172  0.12934  0.21854  1.0000
  H   H3069     1.0  0.90163  0.14954  0.17281  1.0000
  C   C1733     1.0  0.86705  0.14259  0.46262  1.0000
  C   C1734     1.0  0.87512  0.12762  0.47519  1.0000
  C   C1735     1.0  0.88432  0.11578  0.45549  1.0000
  C   C1736     1.0  0.88566  0.11863  0.42290  1.0000
  C   C1737     1.0  0.87752  0.13356  0.41035  1.0000
  C   C1738     1.0  0.86831  0.14539  0.43004  1.0000
  H   H3070     1.0  0.99503  0.04454  0.32934  1.0000
  H   H3071     1.0  0.89055  0.10434  0.46562  1.0000
  H   H3072     1.0  0.87837  0.13605  0.38547  1.0000
  H   H3073     1.0  0.86215  0.15686  0.41989  1.0000
  C   C1739     1.0  0.88361  0.27148  0.17599  1.0000
  H   H3074     1.0  0.90259  0.09630  0.09780  1.0000
  H   H3075     1.0  0.87855  0.26171  0.15933  1.0000
  H   H3076     1.0  0.78159  0.14090  0.11282  1.0000
  C   C1740     1.0  0.85067  0.27670  0.07882  1.0000
  C   C1741     1.0  0.85077  0.26119  0.09666  1.0000
  C   C1742     1.0  0.84906  0.24474  0.08226  1.0000
  C   C1743     1.0  0.84736  0.24360  0.04974  1.0000
  C   C1744     1.0  0.84716  0.25913  0.03199  1.0000
  C   C1745     1.0  0.84880  0.27557  0.04638  1.0000
  H   H3077     1.0  0.85224  0.26189  0.12175  1.0000
  H   H3078     1.0  0.84933  0.23292  0.09623  1.0000
  H   H3079     1.0  0.79506  0.10504  0.42691  1.0000
  H   H3080     1.0  0.84885  0.28734  0.03228  1.0000
  H   H3081     1.0  0.89809  0.27068  0.17547  1.0000
  H   H3082     1.0  0.77192  0.17245  0.48151  1.0000
  C   C1746     1.0  0.76949  0.16619  0.10740  1.0000
  C   C1747     1.0  0.83843  0.27235  0.49186  1.0000
  C   C1748     1.0  0.80228  0.17865  0.27857  1.0000
  H   H3083     1.0  0.86278  0.28949  0.16630  1.0000
  C   C1749     1.0  0.78674  0.10967  0.44659  1.0000
  H   H3084     1.0  0.84592  0.25844  0.00682  1.0000
  C   C1750     1.0  0.77007  0.14878  0.11738  1.0000
  H   H3085     1.0  0.79886  0.29576  0.48901  1.0000
  S   S401      1.0  0.85470  0.15789  0.48593  1.0000
  C   C1751     1.0  0.86542  0.27560  0.45999  1.0000
  C   C1752     1.0  0.99525  0.04284  0.30359  1.0000
  H   H3086     1.0  0.80963  0.13311  0.43253  1.0000
  C   C1753     1.0  0.77175  0.20372  0.16805  1.0000
  H   H3087     1.0  0.87593  0.32021  0.13148  1.0000
  C   C1754     1.0  0.83064  0.11380  0.43390  1.0000
  H   H3088     1.0  0.79057  0.25050  0.10570  1.0000
  H   H3089     1.0  0.81219  0.07591  0.19081  1.0000
  H   H3090     1.0  0.83739  0.05522  0.18597  1.0000
  H   H3091     1.0  0.89060  0.14691  0.05573  1.0000
  C   C1755     1.0  0.78364  0.16672  0.49301  1.0000
  H   H3092     1.0  0.79861  0.30485  0.04456  1.0000
  H   H3093     1.0  0.78157  0.12272  0.44008  1.0000
  H   H3094     1.0  0.92317  0.15098  0.04501  1.0000
  H   H3095     1.0  0.87633  0.02827  0.21580  1.0000
  H   H3096     1.0  0.76419  0.09713  0.42663  1.0000
  H   H3097     1.0  0.87818  0.11526  0.10091  1.0000
  H   H3098     1.0  0.84281  0.10758  0.38931  1.0000
  H   H3099     1.0  0.75736  0.20342  0.17121  1.0000
  C   C1756     1.0  0.80510  0.29748  0.99759  1.0000
  H   H3100     1.0  0.80804  0.16631  0.28797  1.0000
  C   C1757     1.0  0.90852  0.01092  0.22178  1.0000
  H   H3101     1.0  0.83171  0.10497  0.49175  1.0000
  C   C1758     1.0  0.88438  0.11132  0.05075  1.0000
  N   N97       1.0  0.87895  0.32251  0.18163  1.0000
  H   H3102     1.0  0.81479  0.27891  0.11582  1.0000
  N   N98       1.0  0.78882  0.27065  0.06994  1.0000
  C   C1759     1.0  0.79765  0.33543  0.47553  1.0000
  H   H3103     1.0  0.81462  0.29631  0.08746  1.0000
  H   H3104     1.0  0.77676  0.21550  0.17983  1.0000
  N   N99       1.0  0.96426  0.02942  0.29661  1.0000
  C   C1760     1.0  0.95888  0.04186  0.32230  1.0000
  C   C1761     1.0  0.95658  0.03570  0.26602  1.0000
  C   C1762     1.0  0.80523  0.30332  0.13312  1.0000
  H   H3105     1.0  0.79803  0.26661  0.02262  1.0000
  H   H3106     1.0  0.84678  0.11083  0.09743  1.0000
  C   C1763     1.0  0.96297  0.03541  0.35605  1.0000
  C   C1764     1.0  0.80707  0.29012  0.10659  1.0000
  C   C1765     1.0  0.96196  0.05398  0.25446  1.0000
  C   C1766     1.0  0.95351  0.05837  0.22300  1.0000
  H   H3107     1.0  0.81654  0.22345  0.08592  1.0000
  C   C1767     1.0  0.96336  0.05046  0.37936  1.0000
  C   C1768     1.0  0.79944  0.27617  0.04193  1.0000
  H   H3108     1.0  0.94456  0.04444  0.32136  1.0000
  H   H3109     1.0  0.96469  0.05492  0.31885  1.0000
  H   H3110     1.0  0.96016  0.02666  0.24669  1.0000
  H   H3111     1.0  0.94208  0.03574  0.26764  1.0000
  H   H3112     1.0  0.87165  0.04480  0.31301  1.0000
  H   H3113     1.0  0.89855  0.30205  0.18872  1.0000
  H   H3114     1.0  0.79011  0.33236  0.45420  1.0000
  C   C1769     1.0  0.98386  0.02712  0.29388  1.0000
  H   H3115     1.0  0.92489  0.09482  0.13976  1.0000
  H   H3116     1.0  0.80556  0.18942  0.29472  1.0000
  H   H3117     1.0  0.87671  0.11278  0.02877  1.0000
  C   C1770     1.0  0.88697  0.33480  0.20505  1.0000
  H   H3118     1.0  0.85275  0.31604  0.16680  1.0000
  H   H3119     1.0  0.87884  0.26816  0.19983  1.0000
  H   H3120     1.0  0.95779  0.06411  0.27140  1.0000
  H   H3121     1.0  0.97622  0.05453  0.25061  1.0000
  H   H3122     1.0  0.95629  0.07215  0.21666  1.0000
  H   H3123     1.0  0.93915  0.05679  0.22416  1.0000
  H   H3124     1.0  0.88198  0.29206  0.14214  1.0000
  H   H3125     1.0  0.82449  0.10085  0.43639  1.0000
  C   C1771     1.0  0.87205  0.11715  0.07769  1.0000
  H   H3126     1.0  0.95047  0.05722  0.38042  1.0000
  H   H3127     1.0  0.79155  0.15188  0.45310  1.0000
  H   H3128     1.0  0.97353  0.05998  0.37270  1.0000
  H   H3129     1.0  0.89844  0.32028  0.09043  1.0000
  H   H3130     1.0  0.95271  0.02623  0.36389  1.0000
  H   H3131     1.0  0.91076  0.11370  0.14367  1.0000
  N   N100      1.0  0.80981  0.17090  0.18913  1.0000
  C   C1772     1.0  0.80000  0.18668  0.17653  1.0000
  C   C1773     1.0  0.82932  0.17275  0.18405  1.0000
  C   C1774     1.0  0.80401  0.15527  0.17061  1.0000
  C   C1775     1.0  0.80572  0.16752  0.22313  1.0000
  C   C1776     1.0  0.80955  0.18257  0.24596  1.0000
  H   H3132     1.0  0.82468  0.33346  0.17587  1.0000
  C   C1777     1.0  0.81272  0.13752  0.17964  1.0000
  C   C1778     1.0  0.83690  0.19144  0.18544  1.0000
  C   C1779     1.0  0.85682  0.19099  0.18441  1.0000
  C   C1780     1.0  0.87008  0.29140  0.40844  1.0000
  H   H3133     1.0  0.80564  0.27822  0.46348  1.0000
  C   C1781     1.0  0.80927  0.12355  0.15514  1.0000
  H   H3134     1.0  0.80246  0.18797  0.15087  1.0000
  H   H3135     1.0  0.80478  0.19894  0.18684  1.0000
  H   H3136     1.0  0.83671  0.16447  0.20109  1.0000
  H   H3137     1.0  0.83330  0.16769  0.16058  1.0000
  H   H3138     1.0  0.80622  0.15765  0.14510  1.0000
  H   H3139     1.0  0.78979  0.15318  0.17332  1.0000
  H   H3140     1.0  0.79185  0.16366  0.22599  1.0000
  H   H3141     1.0  0.81345  0.15611  0.23192  1.0000
  H   H3142     1.0  0.80367  0.19512  0.23806  1.0000
  H   H3143     1.0  0.82385  0.18403  0.24839  1.0000
  H   H3144     1.0  0.90863  0.01490  0.19747  1.0000
  H   H3145     1.0  0.77463  0.20456  0.14260  1.0000
  H   H3146     1.0  0.80735  0.13277  0.20226  1.0000
  H   H3147     1.0  0.82699  0.13861  0.18218  1.0000
  H   H3148     1.0  0.83239  0.19924  0.16494  1.0000
  H   H3149     1.0  0.83282  0.19846  0.20686  1.0000
  H   H3150     1.0  0.86185  0.20448  0.18601  1.0000
  H   H3151     1.0  0.86220  0.18316  0.20417  1.0000
  H   H3152     1.0  0.86149  0.18530  0.16202  1.0000
  H   H3153     1.0  0.98752  0.02344  0.26950  1.0000
  H   H3154     1.0  0.85409  0.02340  0.22044  1.0000
  N   N101      1.0  0.81114  0.12367  0.48052  1.0000
  H   H3155     1.0  0.96227  0.00613  0.32543  1.0000
  H   H3156     1.0  0.82109  0.11684  0.38617  1.0000
  H   H3157     1.0  0.76210  0.10183  0.46775  1.0000
  H   H3158     1.0  0.79505  0.12126  0.15313  1.0000
  H   H3159     1.0  0.81453  0.12757  0.13196  1.0000
  H   H3160     1.0  0.81580  0.11111  0.16215  1.0000
  H   H3161     1.0  0.77589  0.08384  0.45469  1.0000
  H   H3162     1.0  0.79815  0.31525  0.12491  1.0000
  C   C1782     1.0  0.87723  0.28972  0.16633  1.0000
  H   H3163     1.0  0.80449  0.23991  0.04006  1.0000
  H   H3164     1.0  0.97568  0.02835  0.35718  1.0000
  H   H3165     1.0  0.84808  0.10873  0.05546  1.0000
  C   C1783     1.0  0.86309  0.03236  0.20794  1.0000
  C   C1784     1.0  0.85529  0.10659  0.07769  1.0000
  H   H3166     1.0  0.88686  0.09703  0.05323  1.0000
  N   N102      1.0  0.85925  0.05104  0.21701  1.0000
  C   C1785     1.0  0.86974  0.06358  0.19746  1.0000
  C   C1786     1.0  0.84015  0.05494  0.21150  1.0000
  C   C1787     1.0  0.86395  0.05329  0.25100  1.0000
  C   C1788     1.0  0.90788  0.16906  0.01814  1.0000
  H   H3167     1.0  0.90288  0.17592  0.03927  1.0000
  C   C1789     1.0  0.88978  0.06069  0.19771  1.0000
  C   C1790     1.0  0.85323  0.04227  0.27466  1.0000
  C   C1791     1.0  0.83308  0.07251  0.22492  1.0000
  C   C1792     1.0  0.81388  0.07540  0.21660  1.0000
  C   C1793     1.0  0.81948  0.12845  0.44961  1.0000
  C   C1794     1.0  0.89887  0.07388  0.17651  1.0000
  C   C1795     1.0  0.85754  0.04699  0.30837  1.0000
  H   H3168     1.0  0.86745  0.07714  0.20552  1.0000
  H   H3169     1.0  0.86527  0.06367  0.17273  1.0000
  S   S402      1.0  0.83260  0.32871  0.03188  1.0000
  H   H3170     1.0  0.83192  0.04426  0.22094  1.0000
  H   H3171     1.0  0.86310  0.06732  0.25777  1.0000
  H   H3172     1.0  0.87782  0.04948  0.25506  1.0000
  H   H3173     1.0  0.91934  0.17625  0.00913  1.0000
  H   H3174     1.0  0.87075  0.03579  0.15835  1.0000
  C   C1796     1.0  0.83358  0.11748  0.39911  1.0000
  H   H3175     1.0  0.86850  0.13113  0.07502  1.0000
  H   H3176     1.0  0.89492  0.06255  0.22158  1.0000
  H   H3177     1.0  0.89351  0.04743  0.18957  1.0000
  C   C1797     1.0  0.79669  0.25395  0.08287  1.0000
  H   H3178     1.0  0.83900  0.04428  0.27167  1.0000
  H   H3179     1.0  0.83407  0.07278  0.25079  1.0000
  H   H3180     1.0  0.84037  0.08374  0.21540  1.0000
  H   H3181     1.0  0.80918  0.08800  0.22651  1.0000
  C   C1798     1.0  0.77996  0.18715  0.18206  1.0000
  H   H3182     1.0  0.80581  0.06476  0.22650  1.0000
  H   H3183     1.0  0.92453  0.09705  0.08283  1.0000
  H   H3184     1.0  0.91070  0.33610  0.15237  1.0000
  C   C1799     1.0  0.86149  0.02808  0.17264  1.0000
  H   H3185     1.0  0.89603  0.08743  0.18449  1.0000
  H   H3186     1.0  0.91320  0.07162  0.17752  1.0000
  H   H3187     1.0  0.89455  0.07247  0.15190  1.0000
  H   H3188     1.0  0.85003  0.03864  0.32473  1.0000
  H   H3189     1.0  0.98852  0.01594  0.30854  1.0000
  C   C1800     1.0  0.86560  0.00880  0.16657  1.0000
  N   N103      1.0  0.90130  0.12105  0.04797  1.0000
  H   H3190     1.0  0.79453  0.21805  0.09781  1.0000
  C   C1801     1.0  0.91041  0.12215  0.07911  1.0000
  H   H3191     1.0  0.87993  0.30035  0.21303  1.0000
  C   C1802     1.0  0.89730  0.13941  0.03683  1.0000
  H   H3192     1.0  0.88782  0.13940  0.01715  1.0000
  H   H3193     1.0  0.84807  0.03082  0.16422  1.0000
  H   H3194     1.0  0.87991  0.27457  0.46060  1.0000
  C   C1803     1.0  0.91432  0.10451  0.09583  1.0000
  C   C1804     1.0  0.92108  0.10750  0.12893  1.0000
  H   H3195     1.0  0.89766  0.16927  0.99980  1.0000
  C   C1805     1.0  0.88419  0.30382  0.18883  1.0000
  H   H3196     1.0  0.91522  0.09773  0.03320  1.0000
  H   H3197     1.0  0.92624  0.11729  0.02467  1.0000
  H   H3198     1.0  0.92321  0.12860  0.07637  1.0000
  H   H3199     1.0  0.90290  0.13078  0.09546  1.0000
  C   C1806     1.0  0.79736  0.10986  0.47746  1.0000
  C   C1807     1.0  0.91304  0.11143  0.02525  1.0000
  H   H3200     1.0  0.91955  0.14463  0.00519  1.0000
  C   C1808     1.0  0.78889  0.28439  0.09512  1.0000
  H   H3201     1.0  0.81840  0.30703  0.14121  1.0000
  H   H3202     1.0  0.82822  0.13981  0.45258  1.0000
  C   C1809     1.0  0.91326  0.15031  0.02631  1.0000
  H   H3203     1.0  0.91458  0.32579  0.19995  1.0000
  H   H3204     1.0  0.77681  0.18706  0.20742  1.0000
  H   H3205     1.0  0.88436  0.29221  0.41240  1.0000
  C   C1810     1.0  0.79502  0.29443  0.02801  1.0000
  H   H3206     1.0  0.81356  0.27594  0.04763  1.0000
  H   H3207     1.0  0.78185  0.27967  0.11623  1.0000
  H   H3208     1.0  0.96640  0.04530  0.40307  1.0000
  H   H3209     1.0  0.85633  0.02816  0.27174  1.0000
  C   C1811     1.0  0.79613  0.23785  0.06100  1.0000
  H   H3210     1.0  0.85828  0.09245  0.08057  1.0000
  H   H3211     1.0  0.83487  0.26427  0.47132  1.0000
  H   H3212     1.0  0.78159  0.29635  0.08740  1.0000
  H   H3213     1.0  0.86131  0.26393  0.44670  1.0000
  H   H3214     1.0  0.78785  0.17753  0.27784  1.0000
  H   H3215     1.0  0.81078  0.32916  0.47400  1.0000
  H   H3216     1.0  0.79806  0.29761  0.15326  1.0000
  H   H3217     1.0  0.81075  0.25573  0.08811  1.0000
  H   H3218     1.0  0.86592  0.30284  0.39408  1.0000
  H   H3219     1.0  0.85404  0.06086  0.31306  1.0000
  H   H3220     1.0  0.78096  0.29594  0.02266  1.0000
  C   C1812     1.0  0.86023  0.29159  0.43962  1.0000
  H   H3221     1.0  0.88840  0.29613  0.49103  1.0000
  C   C1813     1.0  0.88365  0.32773  0.14862  1.0000
  C   C1814     1.0  0.95628  0.01191  0.30402  1.0000
  C   C1815     1.0  0.77131  0.09734  0.44919  1.0000
  H   H3222     1.0  0.77661  0.14099  0.47950  1.0000
  H   H3223     1.0  0.84367  0.11300  0.44513  1.0000
  H   H3224     1.0  0.86323  0.30409  0.45125  1.0000
  C   C1816     1.0  0.80302  0.22148  0.07764  1.0000
  H   H3225     1.0  0.84612  0.29124  0.43416  1.0000
  H   H3226     1.0  0.85514  0.31851  0.20800  1.0000
  H   H3227     1.0  0.91988  0.32839  0.09865  1.0000
  H   H3228     1.0  0.83931  0.13058  0.39566  1.0000
  H   H3229     1.0  0.94214  0.01355  0.30968  1.0000
  H   H3230     1.0  0.99701  0.09843  0.25199  1.0000
  H   H3231     1.0  0.77348  0.17592  0.17116  1.0000
  H   H3232     1.0  0.79452  0.17601  0.49021  1.0000
  C   C1817     1.0  0.85933  0.32393  0.18494  1.0000
  C   C1818     1.0  0.99855  0.09503  0.27642  1.0000
  H   H3233     1.0  0.78271  0.23509  0.05311  1.0000
  H   H3234     1.0  0.86668  0.23967  0.47314  1.0000
  H   H3235     1.0  0.82998  0.29854  0.47452  1.0000
  H   H3236     1.0  0.87843  0.33621  0.22612  1.0000
  C   C1819     1.0  0.78839  0.14921  0.47795  1.0000
  H   H3237     1.0  0.75630  0.12813  0.14129  1.0000
  C   C1820     1.0  0.90315  0.32620  0.13957  1.0000
  H   H3238     1.0  0.81935  0.29578  0.00141  1.0000
  H   H3239     1.0  0.80321  0.21035  0.06107  1.0000
  C   C1821     1.0  0.90582  0.32976  0.10467  1.0000
  H   H3240     1.0  0.80333  0.09654  0.47958  1.0000
  C   C1822     1.0  0.75569  0.14158  0.13345  1.0000
  H   H3241     1.0  0.99174  0.16450  0.24037  1.0000
  N   N104      1.0  0.85796  0.27517  0.49269  1.0000
  C   C1823     1.0  0.80730  0.28391  0.48710  1.0000
  C   C1824     1.0  0.82631  0.28876  0.49240  1.0000
  H   H3242     1.0  0.86415  0.00595  0.14127  1.0000
  H   H3243     1.0  0.76408  0.28091  0.05349  1.0000
  C   C1825     1.0  0.00277  0.08641  0.33930  1.0000
  C   C1826     1.0  0.77021  0.26811  0.05974  1.0000
  H   H3244     1.0  0.76974  0.26027  0.03790  1.0000
  H   H3245     1.0  0.75703  0.26760  0.10580  1.0000
  C   C1827     1.0  0.75790  0.25963  0.08425  1.0000
  H   H3246     1.0  0.76244  0.24629  0.09075  1.0000
  C   C1828     1.0  0.75418  0.17611  0.11284  1.0000
  H   H3247     1.0  0.82862  0.14922  0.88649  1.0000
  H   H3248     1.0  0.79073  0.32991  0.49615  1.0000
  Fe  Fe202     1.0  0.84339  0.32672  0.58526  1.0000
  S   S403      1.0  0.85462  0.30033  0.60092  1.0000
  H   H3249     1.0  0.88339  0.03357  0.67065  1.0000
  Fe  Fe203     1.0  0.83396  0.19822  0.57251  1.0000
  S   S404      1.0  0.82116  0.17916  0.54048  1.0000
  S   S405      1.0  0.82491  0.22631  0.56234  1.0000
  Fe  Fe204     1.0  0.85189  0.16826  0.60799  1.0000
  S   S406      1.0  0.84009  0.14728  0.57821  1.0000
  S   S407      1.0  0.87085  0.16457  0.64879  1.0000
  Fe  Fe205     1.0  0.84683  0.16462  0.53702  1.0000
  H   H3250     1.0  0.87851  0.15478  0.96091  1.0000
  Fe  Fe206     1.0  0.81517  0.16334  0.58333  1.0000
  S   S408      1.0  0.78789  0.15150  0.58514  1.0000
  S   S409      1.0  0.86015  0.18488  0.56650  1.0000
  S   S410      1.0  0.82651  0.18308  0.61578  1.0000
  Fe  Fe207     1.0  0.91236  0.09788  0.83946  1.0000
  S   S411      1.0  0.92226  0.11115  0.79534  1.0000
  S   S412      1.0  0.90516  0.11712  0.87951  1.0000
  Fe  Fe208     1.0  0.91747  0.06128  0.80915  1.0000
  S   S413      1.0  0.92748  0.07253  0.76437  1.0000
  S   S414      1.0  0.91335  0.03177  0.81420  1.0000
  Fe  Fe209     1.0  0.94341  0.09033  0.79447  1.0000
  S   S415      1.0  0.97061  0.09624  0.77483  1.0000
  Fe  Fe210     1.0  0.90576  0.09231  0.76911  1.0000
  S   S416      1.0  0.88753  0.09562  0.72758  1.0000
  S   S417      1.0  0.93466  0.07794  0.83976  1.0000
  S   S418      1.0  0.89461  0.08018  0.81269  1.0000
  C   C1829     1.0  0.99172  0.09483  0.79201  1.0000
  C   C1830     1.0  0.99416  0.09256  0.82419  1.0000
  H   H3251     1.0  0.81718  0.07088  0.70535  1.0000
  H   H3252     1.0  0.98293  0.09136  0.83945  1.0000
  H   H3253     1.0  0.92248  0.04004  0.68433  1.0000
  H   H3254     1.0  0.92524  0.01004  0.70702  1.0000
  C   C1831     1.0  0.92081  0.01968  0.75391  1.0000
  H   H3255     1.0  0.90230  0.05650  0.71903  1.0000
  H   H3256     1.0  0.92527  0.03269  0.74862  1.0000
  C   C1832     1.0  0.84655  0.15749  0.84952  1.0000
  C   C1833     1.0  0.87470  0.14540  0.67120  1.0000
  C   C1834     1.0  0.88632  0.14604  0.69656  1.0000
  C   C1835     1.0  0.89007  0.13102  0.71461  1.0000
  C   C1836     1.0  0.88242  0.11515  0.70712  1.0000
  C   C1837     1.0  0.87059  0.11454  0.68214  1.0000
  C   C1838     1.0  0.86673  0.12959  0.66425  1.0000
  H   H3257     1.0  0.89245  0.15826  0.70217  1.0000
  H   H3258     1.0  0.89901  0.13171  0.73403  1.0000
  H   H3259     1.0  0.86453  0.10233  0.67629  1.0000
  H   H3260     1.0  0.85774  0.12896  0.64487  1.0000
  C   C1839     1.0  0.86431  0.13092  0.95701  1.0000
  C   C1840     1.0  0.87757  0.14249  0.94878  1.0000
  C   C1841     1.0  0.88972  0.13812  0.92486  1.0000
  C   C1842     1.0  0.88881  0.12219  0.90850  1.0000
  C   C1843     1.0  0.87534  0.11079  0.91630  1.0000
  C   C1844     1.0  0.86327  0.11510  0.94036  1.0000
  H   H3261     1.0  0.83596  0.12663  0.50389  1.0000
  H   H3262     1.0  0.90000  0.14713  0.91912  1.0000
  H   H3263     1.0  0.87439  0.09848  0.90417  1.0000
  H   H3264     1.0  0.85308  0.10603  0.94629  1.0000
  C   C1845     1.0  0.77090  0.15709  0.61223  1.0000
  C   C1846     1.0  0.77410  0.16643  0.63964  1.0000
  H   H3265     1.0  0.99613  0.13551  0.63725  1.0000
  H   H3266     1.0  0.78714  0.17087  0.64441  1.0000
  C   C1847     1.0  0.84530  0.27972  0.59326  1.0000
  C   C1848     1.0  0.82910  0.27829  0.57871  1.0000
  C   C1849     1.0  0.82272  0.26173  0.57084  1.0000
  C   C1850     1.0  0.83250  0.24643  0.57707  1.0000
  C   C1851     1.0  0.84841  0.24780  0.59269  1.0000
  C   C1852     1.0  0.85477  0.26438  0.60068  1.0000
  H   H3267     1.0  0.82156  0.28995  0.57334  1.0000
  C   C1853     1.0  0.98200  0.13379  0.63270  1.0000
  H   H3268     1.0  0.85600  0.23614  0.59791  1.0000
  H   H3269     1.0  0.86726  0.26535  0.61215  1.0000
  H   H3270     1.0  0.77254  0.22698  0.62631  1.0000
  N   N105      1.0  0.94383  0.11144  0.67879  1.0000
  C   C1854     1.0  0.95444  0.09910  0.69903  1.0000
  C   C1855     1.0  0.93575  0.12540  0.69933  1.0000
  C   C1856     1.0  0.92900  0.10120  0.66509  1.0000
  C   C1857     1.0  0.95434  0.11938  0.65243  1.0000
  C   C1858     1.0  0.97400  0.12264  0.65865  1.0000
  C   C1859     1.0  0.96111  0.08213  0.68290  1.0000
  C   C1860     1.0  0.91590  0.11161  0.64426  1.0000
  C   C1861     1.0  0.94840  0.13758  0.71653  1.0000
  C   C1862     1.0  0.93845  0.14986  0.73858  1.0000
  H   H3271     1.0  0.83655  0.08099  0.72003  1.0000
  C   C1863     1.0  0.97551  0.07306  0.70182  1.0000
  C   C1864     1.0  0.90296  0.09940  0.62877  1.0000
  H   H3272     1.0  0.94663  0.09500  0.71978  1.0000
  H   H3273     1.0  0.96586  0.10571  0.70911  1.0000
  H   H3274     1.0  0.92723  0.13433  0.68544  1.0000
  H   H3275     1.0  0.92718  0.11922  0.71729  1.0000
  H   H3276     1.0  0.92135  0.09482  0.68417  1.0000
  H   H3277     1.0  0.93417  0.09052  0.65001  1.0000
  H   H3278     1.0  0.95403  0.11091  0.63131  1.0000
  H   H3279     1.0  0.94818  0.13198  0.64488  1.0000
  H   H3280     1.0  0.98139  0.11009  0.65935  1.0000
  H   H3281     1.0  0.97628  0.12925  0.68115  1.0000
  H   H3282     1.0  0.95031  0.07273  0.68096  1.0000
  H   H3283     1.0  0.96613  0.08477  0.65900  1.0000
  H   H3284     1.0  0.92271  0.11893  0.62549  1.0000
  H   H3285     1.0  0.90810  0.12102  0.65827  1.0000
  H   H3286     1.0  0.95803  0.13017  0.73083  1.0000
  H   H3287     1.0  0.95528  0.14596  0.69936  1.0000
  H   H3288     1.0  0.92870  0.15788  0.72550  1.0000
  H   H3289     1.0  0.93168  0.14229  0.75706  1.0000
  H   H3290     1.0  0.94772  0.15877  0.75008  1.0000
  C   C1865     1.0  0.83450  0.10212  0.55274  1.0000
  H   H3291     1.0  0.79853  0.13738  0.51910  1.0000
  H   H3292     1.0  0.89052  0.06471  0.68561  1.0000
  H   H3293     1.0  0.98006  0.06108  0.68953  1.0000
  H   H3294     1.0  0.98680  0.08181  0.70480  1.0000
  H   H3295     1.0  0.97049  0.06920  0.72525  1.0000
  H   H3296     1.0  0.89582  0.09177  0.64677  1.0000
  H   H3297     1.0  0.89329  0.10724  0.61518  1.0000
  H   H3298     1.0  0.90982  0.09030  0.61256  1.0000
  C   C1866     1.0  0.99406  0.04597  0.77652  1.0000
  H   H3299     1.0  0.89109  0.12987  0.81958  1.0000
  C   C1867     1.0  0.85995  0.02113  0.70801  1.0000
  H   H3300     1.0  0.83398  0.04428  0.69135  1.0000
  H   H3301     1.0  0.83998  0.16005  0.78617  1.0000
  H   H3302     1.0  0.78795  0.11087  0.49737  1.0000
  H   H3303     1.0  0.85872  0.16510  0.84851  1.0000
  H   H3304     1.0  0.85658  0.29057  0.53477  1.0000
  H   H3305     1.0  0.91033  0.04743  0.65036  1.0000
  C   C1868     1.0  0.91483  0.01573  0.78408  1.0000
  H   H3306     1.0  0.90007  0.16888  0.82019  1.0000
  H   H3307     1.0  0.76191  0.21848  0.59191  1.0000
  H   H3308     1.0  0.85617  0.03542  0.82338  1.0000
  H   H3309     1.0  0.85261  0.05029  0.77284  1.0000
  H   H3310     1.0  0.85479  0.08376  0.80956  1.0000
  H   H3311     1.0  0.77132  0.20377  0.62031  1.0000
  C   C1869     1.0  0.76419  0.21640  0.61731  1.0000
  H   H3312     1.0  0.85123  0.02684  0.76892  1.0000
  H   H3313     1.0  0.83759  0.08944  0.54131  1.0000
  H   H3314     1.0  0.86973  0.16272  0.79983  1.0000
  C   C1870     1.0  0.84109  0.15631  0.88392  1.0000
  C   C1871     1.0  0.91951  0.10132  0.96979  1.0000
  H   H3315     1.0  0.92262  0.08790  0.97826  1.0000
  H   H3316     1.0  0.87845  0.31368  0.55316  1.0000
  H   H3317     1.0  0.81427  0.14976  0.49834  1.0000
  H   H3318     1.0  0.85765  0.13122  0.85134  1.0000
  S   S419      1.0  0.82849  0.33088  0.54087  1.0000
  H   H3319     1.0  0.81029  0.26078  0.55918  1.0000
  H   H3320     1.0  0.87437  0.02278  0.80847  1.0000
  H   H3321     1.0  0.78070  0.16501  0.51833  1.0000
  H   H3322     1.0  0.89400  0.10255  0.99041  1.0000
  H   H3323     1.0  0.86241  0.26025  0.53506  1.0000
  C   C1872     1.0  0.80370  0.14007  0.49526  1.0000
  C   C1873     1.0  0.86183  0.24141  0.49741  1.0000
  C   C1874     1.0  0.88419  0.31357  0.52927  1.0000
  H   H3324     1.0  0.85133  0.14944  0.89782  1.0000
  C   C1875     1.0  0.81971  0.11165  0.53554  1.0000
  H   H3325     1.0  0.83555  0.15159  0.69996  1.0000
  C   C1876     1.0  0.92082  0.00679  0.73036  1.0000
  H   H3326     1.0  0.76325  0.17651  0.68280  1.0000
  H   H3327     1.0  0.83926  0.16964  0.89363  1.0000
  H   H3328     1.0  0.91366  0.15081  0.83290  1.0000
  H   H3329     1.0  0.83421  0.26456  0.51251  1.0000
  N   N106      1.0  0.85588  0.13823  0.80216  1.0000
  C   C1877     1.0  0.84234  0.14605  0.78053  1.0000
  H   H3330     1.0  0.88481  0.02820  0.75471  1.0000
  C   C1878     1.0  0.87246  0.14842  0.79856  1.0000
  C   C1879     1.0  0.85970  0.11935  0.79429  1.0000
  C   C1880     1.0  0.84352  0.10766  0.78985  1.0000
  C   C1881     1.0  0.84700  0.14559  0.74512  1.0000
  H   H3331     1.0  0.83620  0.16490  0.83692  1.0000
  H   H3332     1.0  0.92159  0.06285  0.67425  1.0000
  H   H3333     1.0  0.98733  0.05866  0.78076  1.0000
  C   C1882     1.0  0.83162  0.15167  0.72504  1.0000
  H   H3334     1.0  0.83050  0.09954  0.57733  1.0000
  H   H3335     1.0  0.82950  0.13973  0.78417  1.0000
  S   S420      1.0  0.84884  0.13529  0.98784  1.0000
  H   H3336     1.0  0.87817  0.14633  0.77487  1.0000
  H   H3337     1.0  0.86784  0.11827  0.77274  1.0000
  H   H3338     1.0  0.90817  0.15304  0.79210  1.0000
  H   H3339     1.0  0.83651  0.11129  0.76805  1.0000
  H   H3340     1.0  0.88291  0.14593  0.84661  1.0000
  H   H3341     1.0  0.85797  0.15448  0.74001  1.0000
  H   H3342     1.0  0.85083  0.13230  0.73731  1.0000
  C   C1883     1.0  0.86011  0.03782  0.77319  1.0000
  H   H3343     1.0  0.82699  0.29504  0.51569  1.0000
  H   H3344     1.0  0.91410  0.10037  0.94580  1.0000
  H   H3345     1.0  0.83425  0.10892  0.80970  1.0000
  H   H3346     1.0  0.84642  0.11020  0.55296  1.0000
  H   H3347     1.0  0.88843  0.28593  0.52924  1.0000
  C   C1884     1.0  0.84873  0.08838  0.78741  1.0000
  H   H3348     1.0  0.85805  0.08628  0.76780  1.0000
  C   C1885     1.0  0.86624  0.25987  0.50988  1.0000
  H   H3349     1.0  0.82040  0.14281  0.72809  1.0000
  H   H3350     1.0  0.82755  0.16520  0.73127  1.0000
  H   H3351     1.0  0.86546  0.22780  0.54192  1.0000
  H   H3352     1.0  0.83612  0.13268  0.83707  1.0000
  C   C1886     1.0  0.90322  0.15485  0.81633  1.0000
  H   H3353     1.0  0.83696  0.08049  0.78308  1.0000
  H   H3354     1.0  0.97563  0.14691  0.63192  1.0000
  H   H3355     1.0  0.80830  0.10292  0.53538  1.0000
  N   N107      1.0  0.87000  0.03749  0.71488  1.0000
  H   H3356     1.0  0.86782  0.11315  0.81294  1.0000
  C   C1887     1.0  0.85976  0.05362  0.70490  1.0000
  C   C1888     1.0  0.88652  0.03666  0.69546  1.0000
  C   C1889     1.0  0.87511  0.03860  0.74888  1.0000
  H   H3357     1.0  0.83474  0.07607  0.67885  1.0000
  C   C1890     1.0  0.89783  0.05330  0.69517  1.0000
  C   C1891     1.0  0.83963  0.05332  0.70873  1.0000
  C   C1892     1.0  0.83159  0.07144  0.70288  1.0000
  H   H3358     1.0  0.83551  0.04893  0.73225  1.0000
  C   C1893     1.0  0.91403  0.05066  0.67472  1.0000
  H   H3359     1.0  0.80092  0.28820  0.97930  1.0000
  H   H3360     1.0  0.98851  0.04017  0.75505  1.0000
  H   H3361     1.0  0.86467  0.06532  0.71731  1.0000
  H   H3362     1.0  0.86189  0.05634  0.67951  1.0000
  C   C1894     1.0  0.86714  0.03541  0.80633  1.0000
  H   H3363     1.0  0.84720  0.02109  0.72030  1.0000
  C   C1895     1.0  0.88712  0.14374  0.82208  1.0000
  H   H3364     1.0  0.88200  0.05099  0.75355  1.0000
  H   H3365     1.0  0.88070  0.26069  0.50940  1.0000
  H   H3366     1.0  0.87600  0.04619  0.81241  1.0000
  C   C1896     1.0  0.84905  0.13899  0.83535  1.0000
  H   H3367     1.0  0.93166  0.10901  0.96847  1.0000
  C   C1897     1.0  0.76049  0.16962  0.66140  1.0000
  H   H3368     1.0  0.99144  0.03727  0.79682  1.0000
  H   H3369     1.0  0.98057  0.12737  0.60961  1.0000
  H   H3370     1.0  0.89519  0.02590  0.70369  1.0000
  H   H3371     1.0  0.81619  0.12335  0.54947  1.0000
  H   H3372     1.0  0.85663  0.02076  0.68265  1.0000
  H   H3373     1.0  0.87794  0.32408  0.51505  1.0000
  H   H3374     1.0  0.80297  0.27434  0.50507  1.0000
  C   C1898     1.0  0.88176  0.29575  0.51411  1.0000
  H   H3375     1.0  0.90332  0.12333  0.98135  1.0000
  H   H3376     1.0  0.89831  0.31636  0.53124  1.0000
  C   C1899     1.0  0.82541  0.11684  0.50184  1.0000
  C   C1900     1.0  0.86213  0.29149  0.51075  1.0000
  H   H3377     1.0  0.87433  0.12516  0.50008  1.0000
  H   H3378     1.0  0.88477  0.22834  0.51736  1.0000
  H   H3379     1.0  0.84757  0.23909  0.49774  1.0000
  H   H3380     1.0  0.85575  0.30323  0.50040  1.0000
  H   H3381     1.0  0.86703  0.21408  0.50803  1.0000
  C   C1901     1.0  0.87035  0.22711  0.51745  1.0000
  C   C1902     1.0  0.90614  0.11024  0.99125  1.0000
  H   H3382     1.0  0.80255  0.31100  0.98907  1.0000
  C   C1903     1.0  0.75381  0.15141  0.60660  1.0000
  Fe  Fe211     1.0  0.84927  0.35280  0.02642  1.0000
  H   H3383     1.0  0.84476  0.60268  0.15766  1.0000
  C   C1904     1.0  0.91775  0.64741  0.29730  1.0000
  H   H3384     1.0  0.95085  0.57781  0.27700  1.0000
  Fe  Fe212     1.0  0.84390  0.36288  0.09511  1.0000
  S   S421      1.0  0.84626  0.38333  0.13358  1.0000
  S   S422      1.0  0.82922  0.36996  0.05092  1.0000
  Fe  Fe213     1.0  0.93352  0.59873  0.17580  1.0000
  S   S423      1.0  0.92731  0.57851  0.13992  1.0000
  S   S424      1.0  0.95913  0.61294  0.18348  1.0000
  Fe  Fe214     1.0  0.89551  0.60119  0.19762  1.0000
  S   S425      1.0  0.88678  0.58066  0.16347  1.0000
  S   S426      1.0  0.87680  0.61961  0.22329  1.0000
  Fe  Fe215     1.0  0.91126  0.56591  0.17817  1.0000
  S   S427      1.0  0.91593  0.53619  0.18158  1.0000
  Fe  Fe216     1.0  0.90340  0.59476  0.12786  1.0000
  S   S428      1.0  0.89520  0.59910  0.07631  1.0000
  S   S429      1.0  0.91874  0.58561  0.21474  1.0000
  S   S430      1.0  0.91078  0.61574  0.16119  1.0000
  Fe  Fe217     1.0  0.90869  0.41226  0.27255  1.0000
  S   S431      1.0  0.88658  0.42764  0.29463  1.0000
  S   S432      1.0  0.90786  0.39366  0.23104  1.0000
  Fe  Fe218     1.0  0.93616  0.42695  0.31596  1.0000
  S   S433      1.0  0.91581  0.44299  0.34101  1.0000
  S   S434      1.0  0.96328  0.43144  0.33585  1.0000
  Fe  Fe219     1.0  0.89863  0.41941  0.34083  1.0000
  S   S435      1.0  0.88351  0.41549  0.38733  1.0000
  Fe  Fe220     1.0  0.90552  0.45005  0.29354  1.0000
  S   S436      1.0  0.89824  0.47891  0.28634  1.0000
  S   S437      1.0  0.91979  0.40275  0.31875  1.0000
  S   S438      1.0  0.92675  0.43526  0.26843  1.0000
  Fe  Fe221     1.0  0.85491  0.65662  0.39554  1.0000
  S   S439      1.0  0.83989  0.64847  0.43865  1.0000
  S   S440      1.0  0.86859  0.63433  0.36923  1.0000
  H   H3385     1.0  0.82616  0.60376  0.13288  1.0000
  C   C1905     1.0  0.99044  0.60485  0.07181  1.0000
  H   H3386     1.0  0.95919  0.41703  0.44516  1.0000
  C   C1906     1.0  0.91848  0.64640  0.33357  1.0000
  H   H3387     1.0  0.99620  0.59266  0.06218  1.0000
  H   H3388     1.0  0.79269  0.63789  0.34146  1.0000
  H   H3389     1.0  0.93786  0.61167  0.10205  1.0000
  C   C1907     1.0  0.98371  0.42680  0.31774  1.0000
  C   C1908     1.0  0.98497  0.41926  0.28807  1.0000
  H   H3390     1.0  0.94294  0.58594  0.31406  1.0000
  H   H3391     1.0  0.97324  0.41577  0.27576  1.0000
  H   H3392     1.0  0.86031  0.39391  0.48793  1.0000
  C   C1909     1.0  0.98020  0.60295  0.18392  1.0000
  H   H3393     1.0  0.98696  0.46019  0.22756  1.0000
  C   C1910     1.0  0.98253  0.58500  0.17958  1.0000
  H   H3394     1.0  0.93395  0.66593  0.24208  1.0000
  H   H3395     1.0  0.97128  0.57679  0.17720  1.0000
  C   C1911     1.0  0.87505  0.62363  0.26392  1.0000
  C   C1912     1.0  0.88139  0.61176  0.28619  1.0000
  C   C1913     1.0  0.87931  0.61530  0.31831  1.0000
  C   C1914     1.0  0.87094  0.63074  0.32849  1.0000
  C   C1915     1.0  0.86481  0.64272  0.30619  1.0000
  C   C1916     1.0  0.86668  0.63907  0.27406  1.0000
  H   H3396     1.0  0.88762  0.59972  0.27868  1.0000
  H   H3397     1.0  0.88410  0.60597  0.33542  1.0000
  H   H3398     1.0  0.85862  0.65479  0.31369  1.0000
  H   H3399     1.0  0.86173  0.64833  0.25698  1.0000
  C   C1917     1.0  0.88453  0.61618  0.05422  1.0000
  C   C1918     1.0  0.87706  0.61221  0.02505  1.0000
  S   S441      1.0  0.85763  0.35562  0.48204  1.0000
  C   C1919     1.0  0.86756  0.64254  0.01696  1.0000
  C   C1920     1.0  0.87512  0.64651  0.04607  1.0000
  C   C1921     1.0  0.88363  0.63353  0.06440  1.0000
  H   H3400     1.0  0.87777  0.59893  0.01661  1.0000
  H   H3401     1.0  0.81288  0.65144  0.10920  1.0000
  H   H3402     1.0  0.87456  0.65984  0.05432  1.0000
  H   H3403     1.0  0.88980  0.63703  0.08608  1.0000
  C   C1922     1.0  0.91143  0.52063  0.21162  1.0000
  C   C1923     1.0  0.91784  0.50337  0.20845  1.0000
  C   C1924     1.0  0.91417  0.49046  0.23120  1.0000
  C   C1925     1.0  0.90394  0.49465  0.25738  1.0000
  C   C1926     1.0  0.89769  0.51192  0.26066  1.0000
  C   C1927     1.0  0.90143  0.52484  0.23803  1.0000
  H   H3404     1.0  0.92561  0.49997  0.18813  1.0000
  H   H3405     1.0  0.91914  0.47727  0.22838  1.0000
  H   H3406     1.0  0.88976  0.51532  0.28081  1.0000
  H   H3407     1.0  0.89638  0.53801  0.24084  1.0000
  C   C1928     1.0  0.86599  0.37244  0.45715  1.0000
  C   C1929     1.0  0.87282  0.36788  0.42756  1.0000
  C   C1930     1.0  0.87860  0.38075  0.40617  1.0000
  C   C1931     1.0  0.87728  0.39847  0.41379  1.0000
  C   C1932     1.0  0.87058  0.40302  0.44350  1.0000
  C   C1933     1.0  0.86528  0.39013  0.46522  1.0000
  H   H3408     1.0  0.87351  0.35426  0.42099  1.0000
  H   H3409     1.0  0.88370  0.37696  0.38352  1.0000
  H   H3410     1.0  0.86950  0.41666  0.44981  1.0000
  C   C1934     1.0  0.78887  0.40661  0.42479  1.0000
  C   C1935     1.0  0.86354  0.38583  0.16047  1.0000
  C   C1936     1.0  0.86038  0.39510  0.18828  1.0000
  C   C1937     1.0  0.87376  0.39753  0.21023  1.0000
  C   C1938     1.0  0.89052  0.39086  0.20436  1.0000
  C   C1939     1.0  0.89375  0.38181  0.17632  1.0000
  C   C1940     1.0  0.88033  0.37926  0.15449  1.0000
  H   H3411     1.0  0.84743  0.40029  0.19302  1.0000
  H   H3412     1.0  0.87110  0.40447  0.23176  1.0000
  H   H3413     1.0  0.90673  0.37677  0.17143  1.0000
  H   H3414     1.0  0.88301  0.37249  0.13281  1.0000
  H   H3415     1.0  0.93880  0.62548  0.06779  1.0000
  H   H3416     1.0  0.96909  0.62132  0.11449  1.0000
  C   C1941     1.0  0.91915  0.39943  0.46507  1.0000
  H   H3417     1.0  0.00023  0.46880  0.31319  1.0000
  N   N108      1.0  0.93293  0.40704  0.44382  1.0000
  Fe  Fe222     1.0  0.85408  0.66972  0.46362  1.0000
  C   C1942     1.0  0.92598  0.42331  0.42753  1.0000
  C   C1943     1.0  0.76975  0.34066  0.08940  1.0000
  S   S442      1.0  0.85669  0.65964  0.99526  1.0000
  C   C1944     1.0  0.96757  0.55616  0.10921  1.0000
  C   C1945     1.0  0.85132  0.34262  0.18173  1.0000
  H   H3418     1.0  0.90059  0.46078  0.44306  1.0000
  C   C1946     1.0  0.91315  0.43527  0.44620  1.0000
  C   C1947     1.0  0.77587  0.61876  0.38825  1.0000
  H   H3419     1.0  0.92478  0.38864  0.40859  1.0000
  C   C1948     1.0  0.92646  0.65729  0.19646  1.0000
  H   H3420     1.0  0.99901  0.62326  0.10766  1.0000
  H   H3421     1.0  0.90731  0.39647  0.45120  1.0000
  H   H3422     1.0  0.96160  0.37461  0.38212  1.0000
  H   H3423     1.0  0.93696  0.43141  0.41879  1.0000
  H   H3424     1.0  0.91858  0.41971  0.40621  1.0000
  H   H3425     1.0  0.99123  0.64669  0.25342  1.0000
  C   C1949     1.0  0.97264  0.46250  0.22708  1.0000
  C   C1950     1.0  0.00029  0.60910  0.10241  1.0000
  H   H3426     1.0  0.91115  0.66172  0.23789  1.0000
  H   H3427     1.0  0.83587  0.38507  0.43261  1.0000
  C   C1951     1.0  0.78320  0.59118  0.29890  1.0000
  C   C1952     1.0  0.76987  0.41293  0.42509  1.0000
  H   H3428     1.0  0.82520  0.36577  0.39386  1.0000
  H   H3429     1.0  0.82696  0.64891  0.15787  1.0000
  Fe  Fe223     1.0  0.81397  0.34536  0.06044  1.0000
  C   C1953     1.0  0.77374  0.34899  0.11747  1.0000
  C   C1954     1.0  0.86866  0.62523  0.00659  1.0000
  H   H3430     1.0  0.81709  0.67021  0.06343  1.0000
  C   C1955     1.0  0.76605  0.61933  0.41945  1.0000
  H   H3431     1.0  0.94151  0.37824  0.36079  1.0000
  H   H3432     1.0  0.86826  0.62752  0.12228  1.0000
  H   H3433     1.0  0.80518  0.41651  0.48230  1.0000
  H   H3434     1.0  0.91601  0.35593  0.21950  1.0000
  H   H3435     1.0  0.83347  0.66225  0.11145  1.0000
  C   C1956     1.0  0.86292  0.65254  0.14217  1.0000
  C   C1957     1.0  0.98150  0.64769  0.27271  1.0000
  H   H3436     1.0  0.95606  0.39838  0.46866  1.0000
  C   C1958     1.0  0.94130  0.58686  0.28829  1.0000
  C   C1959     1.0  0.90953  0.45243  0.42889  1.0000
  N   N109      1.0  0.88579  0.44742  0.17112  1.0000
  C   C1960     1.0  0.87140  0.44763  0.19541  1.0000
  C   C1961     1.0  0.88047  0.43689  0.14279  1.0000
  C   C1962     1.0  0.90147  0.43837  0.18551  1.0000
  C   C1963     1.0  0.89113  0.46557  0.16172  1.0000
  C   C1964     1.0  0.87653  0.47764  0.14863  1.0000
  C   C1965     1.0  0.87486  0.45815  0.22561  1.0000
  C   C1966     1.0  0.91769  0.43617  0.16378  1.0000
  C   C1967     1.0  0.86080  0.43666  0.13433  1.0000
  C   C1968     1.0  0.85793  0.42777  0.10286  1.0000
  C   C1969     1.0  0.88305  0.49627  0.14419  1.0000
  C   C1970     1.0  0.85894  0.45801  0.24729  1.0000
  C   C1971     1.0  0.92986  0.42155  0.17534  1.0000
  H   H3437     1.0  0.86834  0.43401  0.20253  1.0000
  H   H3438     1.0  0.85908  0.45305  0.18572  1.0000
  H   H3439     1.0  0.88767  0.44132  0.12156  1.0000
  H   H3440     1.0  0.88417  0.42283  0.14588  1.0000
  H   H3441     1.0  0.89772  0.42530  0.19448  1.0000
  H   H3442     1.0  0.90621  0.44555  0.20624  1.0000
  H   H3443     1.0  0.89736  0.47227  0.18170  1.0000
  H   H3444     1.0  0.90145  0.46499  0.14334  1.0000
  H   H3445     1.0  0.86511  0.47836  0.16455  1.0000
  H   H3446     1.0  0.87234  0.47287  0.12542  1.0000
  H   H3447     1.0  0.88592  0.45245  0.23893  1.0000
  H   H3448     1.0  0.87769  0.47200  0.22018  1.0000
  H   H3449     1.0  0.92510  0.44854  0.16335  1.0000
  H   H3450     1.0  0.91420  0.43303  0.13937  1.0000
  H   H3451     1.0  0.85350  0.42912  0.15229  1.0000
  H   H3452     1.0  0.85504  0.44998  0.13296  1.0000
  H   H3453     1.0  0.86395  0.43541  0.08359  1.0000
  H   H3454     1.0  0.86363  0.41435  0.10300  1.0000
  H   H3455     1.0  0.84373  0.42678  0.09832  1.0000
  H   H3456     1.0  0.88656  0.50203  0.16709  1.0000
  H   H3457     1.0  0.89465  0.49649  0.12850  1.0000
  H   H3458     1.0  0.87262  0.50455  0.13361  1.0000
  H   H3459     1.0  0.85555  0.44441  0.25381  1.0000
  H   H3460     1.0  0.86189  0.46525  0.26904  1.0000
  H   H3461     1.0  0.84756  0.46446  0.23583  1.0000
  H   H3462     1.0  0.92372  0.40867  0.17189  1.0000
  H   H3463     1.0  0.94230  0.42172  0.16192  1.0000
  H   H3464     1.0  0.93280  0.42307  0.20057  1.0000
  N   N110      1.0  0.80724  0.61701  0.36471  1.0000
  C   C1972     1.0  0.82589  0.61421  0.37525  1.0000
  C   C1973     1.0  0.80269  0.60281  0.34180  1.0000
  C   C1974     1.0  0.78893  0.60747  0.31634  1.0000
  C   C1975     1.0  0.82978  0.59720  0.39403  1.0000
  C   C1976     1.0  0.96532  0.46563  0.26054  1.0000
  H   H3465     1.0  0.95168  0.58464  0.08841  1.0000
  H   H3466     1.0  0.83013  0.62535  0.38982  1.0000
  H   H3467     1.0  0.83490  0.61401  0.35474  1.0000
  H   H3468     1.0  0.81451  0.59827  0.32871  1.0000
  C   C1977     1.0  0.75729  0.66324  0.40359  1.0000
  H   H3469     1.0  0.79452  0.61654  0.29877  1.0000
  H   H3470     1.0  0.76772  0.60680  0.43234  1.0000
  H   H3471     1.0  0.82163  0.62772  0.30895  1.0000
  H   H3472     1.0  0.84561  0.63706  0.19964  1.0000
  H   H3473     1.0  0.79458  0.58454  0.28769  1.0000
  H   H3474     1.0  0.94382  0.38198  0.42949  1.0000
  H   H3475     1.0  0.80624  0.37909  0.38578  1.0000
  C   C1978     1.0  0.82838  0.63451  0.15901  1.0000
  C   C1979     1.0  0.92696  0.63798  0.24542  1.0000
  C   C1980     1.0  0.94448  0.60551  0.27690  1.0000
  H   H3476     1.0  0.97027  0.44414  0.18888  1.0000
  H   H3477     1.0  0.84961  0.57284  0.13295  1.0000
  C   C1981     1.0  0.94245  0.48032  0.35255  1.0000
  C   C1982     1.0  0.96830  0.58696  0.02230  1.0000
  H   H3478     1.0  0.96294  0.61971  0.46564  1.0000
  H   H3479     1.0  0.92182  0.45962  0.42472  1.0000
  H   H3480     1.0  0.85358  0.65941  0.15784  1.0000
  H   H3481     1.0  0.96451  0.62961  0.25076  1.0000
  H   H3482     1.0  0.90668  0.38879  0.03032  1.0000
  H   H3483     1.0  0.84453  0.38922  0.37338  1.0000
  C   C1983     1.0  0.92447  0.65676  0.23199  1.0000
  H   H3484     1.0  0.78362  0.39052  0.46576  1.0000
  H   H3485     1.0  0.78591  0.36092  0.48097  1.0000
  C   C1984     1.0  0.76114  0.35026  0.14161  1.0000
  C   C1985     1.0  0.80593  0.63510  0.35069  1.0000
  H   H3486     1.0  0.90144  0.34324  0.09863  1.0000
  C   C1986     1.0  0.99911  0.43111  0.33350  1.0000
  H   H3487     1.0  0.80668  0.63061  0.21167  1.0000
  H   H3488     1.0  0.81761  0.64772  0.05105  1.0000
  C   C1987     1.0  0.93936  0.63926  0.11087  1.0000
  H   H3489     1.0  0.82549  0.40246  0.36414  1.0000
  H   H3490     1.0  0.97184  0.49199  0.32372  1.0000
  H   H3491     1.0  0.77278  0.63103  0.37552  1.0000
  C   C1988     1.0  0.96444  0.44649  0.21235  1.0000
  H   H3492     1.0  0.99392  0.61515  0.05444  1.0000
  H   H3493     1.0  0.90902  0.37162  0.00181  1.0000
  H   H3494     1.0  0.77324  0.37614  0.06196  1.0000
  H   H3495     1.0  0.90448  0.64318  0.29030  1.0000
  C   C1989     1.0  0.97689  0.57172  0.09455  1.0000
  H   H3496     1.0  0.77373  0.59495  0.28038  1.0000
  C   C1990     1.0  0.82625  0.65199  0.09908  1.0000
  C   C1991     1.0  0.84696  0.57870  0.10959  1.0000
  C   C1992     1.0  0.93709  0.39355  0.41904  1.0000
  H   H3497     1.0  0.93962  0.46997  0.30640  1.0000
  C   C1993     1.0  0.94592  0.48134  0.31736  1.0000
  C   C1994     1.0  0.95283  0.52941  0.25846  1.0000
  H   H3498     1.0  0.96989  0.47378  0.21147  1.0000
  H   H3499     1.0  0.91297  0.63384  0.34182  1.0000
  C   C1995     1.0  0.96351  0.64293  0.26046  1.0000
  H   H3500     1.0  0.82433  0.58566  0.38218  1.0000
  H   H3501     1.0  0.99815  0.45671  0.27757  1.0000
  H   H3502     1.0  0.90045  0.42865  0.44919  1.0000
  C   C1996     1.0  0.82453  0.65769  0.06492  1.0000
  C   C1997     1.0  0.94930  0.64472  0.28650  1.0000
  C   C1998     1.0  0.76956  0.39015  0.05991  1.0000
  C   C1999     1.0  0.99501  0.61339  0.18762  1.0000
  C   C2000     1.0  0.00148  0.41607  0.27439  1.0000
  H   H3503     1.0  0.88777  0.34817  0.19494  1.0000
  H   H3504     1.0  0.83315  0.57648  0.10320  1.0000
  C   C2001     1.0  0.94958  0.41078  0.46106  1.0000
  C   C2002     1.0  0.79572  0.61628  0.39345  1.0000
  H   H3505     1.0  0.93939  0.49340  0.30858  1.0000
  H   H3506     1.0  0.82406  0.65723  0.28644  1.0000
  C   C2003     1.0  0.82014  0.37944  0.39275  1.0000
  H   H3507     1.0  0.99486  0.60180  0.12249  1.0000
  C   C2004     1.0  0.95347  0.38451  0.36966  1.0000
  H   H3508     1.0  0.91455  0.63095  0.24112  1.0000
  H   H3509     1.0  0.83763  0.65975  0.05452  1.0000
  H   H3510     1.0  0.92796  0.58263  0.28219  1.0000
  H   H3511     1.0  0.86209  0.65830  0.11832  1.0000
  C   C2005     1.0  0.80982  0.36332  0.45206  1.0000
  H   H3512     1.0  0.79701  0.60342  0.40534  1.0000
  H   H3513     1.0  0.96410  0.59227  0.12004  1.0000
  H   H3514     1.0  0.79814  0.59103  0.35472  1.0000
  H   H3515     1.0  0.97120  0.46905  0.32102  1.0000
  N   N111      1.0  0.93161  0.63711  0.27969  1.0000
  H   H3516     1.0  0.94757  0.49503  0.25798  1.0000
  C   C2006     1.0  0.99948  0.57766  0.17797  1.0000
  C   C2007     1.0  0.96580  0.48126  0.31031  1.0000
  N   N112      1.0  0.97086  0.60370  0.07497  1.0000
  C   C2008     1.0  0.88124  0.65598  0.15442  1.0000
  C   C2009     1.0  0.96294  0.60280  0.04273  1.0000
  H   H3517     1.0  0.83506  0.61625  0.19790  1.0000
  H   H3518     1.0  0.76862  0.39373  0.03476  1.0000
  C   C2010     1.0  0.90776  0.38599  0.00492  1.0000
  H   H3519     1.0  0.95578  0.55291  0.09551  1.0000
  H   H3520     1.0  0.94543  0.65113  0.10087  1.0000
  N   N113      1.0  0.84084  0.62769  0.13422  1.0000
  H   H3521     1.0  0.99829  0.43695  0.35645  1.0000
  H   H3522     1.0  0.82916  0.38189  0.34469  1.0000
  H   H3523     1.0  0.94847  0.60214  0.04433  1.0000
  H   H3524     1.0  0.96588  0.61496  0.02935  1.0000
  H   H3525     1.0  0.93204  0.64737  0.34220  1.0000
  H   H3526     1.0  0.96119  0.40526  0.39953  1.0000
  H   H3527     1.0  0.90313  0.44989  0.40615  1.0000
  H   H3528     1.0  0.93672  0.63088  0.23089  1.0000
  C   C2011     1.0  0.96419  0.51563  0.27494  1.0000
  C   C2012     1.0  0.81392  0.65476  0.30450  1.0000
  C   C2013     1.0  0.99031  0.48464  0.27381  1.0000
  H   H3529     1.0  0.94368  0.63751  0.13545  1.0000
  C   C2014     1.0  0.81800  0.40974  0.48424  1.0000
  H   H3530     1.0  0.00235  0.41014  0.25151  1.0000
  C   C2015     1.0  0.96514  0.58845  0.09496  1.0000
  H   H3531     1.0  0.86492  0.59950  0.11449  1.0000
  H   H3532     1.0  0.96104  0.38948  0.34933  1.0000
  C   C2016     1.0  0.83530  0.63378  0.10187  1.0000
  H   H3533     1.0  0.90543  0.59207  0.48639  1.0000
  C   C2017     1.0  0.83334  0.63043  0.19351  1.0000
  C   C2018     1.0  0.81573  0.38977  0.48127  1.0000
  C   C2019     1.0  0.77489  0.66671  0.39671  1.0000
  H   H3534     1.0  0.93256  0.61744  0.31639  1.0000
  H   H3535     1.0  0.95517  0.54246  0.26870  1.0000
  H   H3536     1.0  0.94813  0.65897  0.29143  1.0000
  H   H3537     1.0  0.95773  0.60899  0.28486  1.0000
  H   H3538     1.0  0.97796  0.51976  0.27283  1.0000
  H   H3539     1.0  0.84668  0.63355  0.08553  1.0000
  Fe  Fe224     1.0  0.82019  0.66914  0.42387  1.0000
  H   H3540     1.0  0.80775  0.64508  0.36926  1.0000
  H   H3541     1.0  0.86411  0.62640  0.16251  1.0000
  C   C2020     1.0  0.79111  0.38925  0.44345  1.0000
  H   H3542     1.0  0.82238  0.40263  0.42134  1.0000
  H   H3543     1.0  0.79997  0.62623  0.41075  1.0000
  C   C2021     1.0  0.96438  0.62047  0.08992  1.0000
  S   S443      1.0  0.78468  0.33987  0.05731  1.0000
  H   H3544     1.0  0.84832  0.60327  0.08565  1.0000
  H   H3545     1.0  0.79693  0.41722  0.43410  1.0000
  H   H3546     1.0  0.91611  0.64955  0.18544  1.0000
  H   H3547     1.0  0.85595  0.59297  0.37472  1.0000
  C   C2022     1.0  0.85939  0.63274  0.14065  1.0000
  C   C2023     1.0  0.79925  0.35517  0.47942  1.0000
  C   C2024     1.0  0.94877  0.39968  0.39138  1.0000
  C   C2025     1.0  0.85085  0.59820  0.10957  1.0000
  H   H3548     1.0  0.79274  0.40472  0.39998  1.0000
  H   H3549     1.0  0.82580  0.62456  0.09156  1.0000
  S   S444      1.0  0.82738  0.33959  0.10551  1.0000
  H   H3550     1.0  0.92497  0.64119  0.11076  1.0000
  H   H3551     1.0  0.82349  0.35828  0.45406  1.0000
  H   H3552     1.0  0.78395  0.37931  0.42979  1.0000
  H   H3553     1.0  0.78642  0.35475  0.12039  1.0000
  C   C2026     1.0  0.83047  0.38887  0.36725  1.0000
  H   H3554     1.0  0.82332  0.63401  0.24056  1.0000
  H   H3555     1.0  0.95019  0.44868  0.20963  1.0000
  N   N114      1.0  0.97085  0.48226  0.27620  1.0000
  H   H3556     1.0  0.82714  0.41487  0.46639  1.0000
  H   H3557     1.0  0.77082  0.63014  0.43423  1.0000
  C   C2027     1.0  0.94427  0.62319  0.09148  1.0000
  H   H3558     1.0  0.91756  0.61311  0.28592  1.0000
  C   C2028     1.0  0.84941  0.59415  0.39789  1.0000
  H   H3559     1.0  0.93946  0.65207  0.18923  1.0000
  C   C2029     1.0  0.91314  0.34506  0.23596  1.0000
  H   H3560     1.0  0.96298  0.57481  0.03258  1.0000
  H   H3561     1.0  0.98895  0.57384  0.10819  1.0000
  H   H3562     1.0  0.99336  0.62730  0.19106  1.0000
  H   H3563     1.0  0.85183  0.58192  0.41131  1.0000
  C   C2030     1.0  0.96180  0.49741  0.26000  1.0000
  H   H3564     1.0  0.95466  0.63891  0.30844  1.0000
  H   H3565     1.0  0.94830  0.49159  0.36467  1.0000
  H   H3566     1.0  0.82416  0.59813  0.41796  1.0000
  H   H3567     1.0  0.94794  0.46796  0.36239  1.0000
  H   H3568     1.0  0.91802  0.43843  0.46973  1.0000
  H   H3569     1.0  0.82641  0.35618  0.18587  1.0000
  S   S445      1.0  0.79079  0.66432  0.42672  1.0000
  H   H3570     1.0  0.92816  0.48062  0.35696  1.0000
  H   H3571     1.0  0.77070  0.60755  0.37506  1.0000
  H   H3572     1.0  0.85250  0.34725  0.15722  1.0000
  C   C2031     1.0  0.81943  0.63908  0.32455  1.0000
  H   H3573     1.0  0.98095  0.56792  0.07067  1.0000
  H   H3574     1.0  0.96985  0.63199  0.07741  1.0000
  H   H3575     1.0  0.89125  0.64970  0.13917  1.0000
  C   C2032     1.0  0.83997  0.60797  0.13497  1.0000
  C   C2033     1.0  0.83194  0.34290  0.19029  1.0000
  H   H3576     1.0  0.83208  0.64220  0.33555  1.0000
  H   H3577     1.0  0.99428  0.48699  0.24906  1.0000
  H   H3578     1.0  0.81505  0.62945  0.15470  1.0000
  H   H3579     1.0  0.93879  0.52638  0.26149  1.0000
  H   H3580     1.0  0.97576  0.59998  0.46085  1.0000
  H   H3581     1.0  0.95086  0.46534  0.25883  1.0000
  H   H3582     1.0  0.96884  0.45400  0.27506  1.0000
  C   C2034     1.0  0.93074  0.61837  0.29067  1.0000
  H   H3583     1.0  0.94424  0.60548  0.25100  1.0000
  H   H3584     1.0  0.98264  0.58565  0.01973  1.0000
  H   H3585     1.0  0.85524  0.60514  0.41091  1.0000
  H   H3586     1.0  0.95593  0.53000  0.23305  1.0000
  C   C2035     1.0  0.81929  0.63706  0.21618  1.0000
  H   H3587     1.0  0.85550  0.57203  0.09213  1.0000
  H   H3588     1.0  0.96681  0.43470  0.22709  1.0000
  H   H3589     1.0  0.96052  0.65184  0.24060  1.0000
  H   H3590     1.0  0.88265  0.65088  0.17867  1.0000
  H   H3591     1.0  0.91834  0.66150  0.29095  1.0000
  N   N115      1.0  0.80956  0.38305  0.45010  1.0000
  H   H3592     1.0  0.96046  0.51570  0.30002  1.0000
  H   H3593     1.0  0.96648  0.49865  0.23545  1.0000
  H   H3594     1.0  0.96362  0.55904  0.13367  1.0000
  H   H3595     1.0  0.80462  0.35762  0.43017  1.0000
  H   H3596     1.0  0.81753  0.65144  0.21393  1.0000
  H   H3597     1.0  0.77712  0.61390  0.32613  1.0000
  H   H3598     1.0  0.98557  0.63856  0.29167  1.0000
  H   H3599     1.0  0.82844  0.38338  0.48743  1.0000
  H   H3600     1.0  0.97647  0.54459  0.10946  1.0000
  H   H3601     1.0  0.94187  0.40976  0.37722  1.0000
  H   H3602     1.0  0.80136  0.65224  0.29261  1.0000
  S   S446      1.0  0.86456  0.34679  0.07059  1.0000
  C   C2036     1.0  0.82240  0.38829  0.42500  1.0000
  H   H3603     1.0  0.99422  0.49658  0.28656  1.0000
  H   H3604     1.0  0.76127  0.40291  0.41489  1.0000
  H   H3605     1.0  0.85778  0.35219  0.19703  1.0000
  C   C2037     1.0  0.90762  0.66106  0.34862  1.0000
  H   H3606     1.0  0.77672  0.58194  0.31520  1.0000
  H   H3607     1.0  0.92731  0.37166  0.46701  1.0000
  H   H3608     1.0  0.78008  0.39790  0.07064  1.0000
  H   H3609     1.0  0.76856  0.42508  0.41092  1.0000
  H   H3610     1.0  0.00112  0.56378  0.17408  1.0000
  H   H3611     1.0  0.76432  0.35695  0.16302  1.0000
  H   H3612     1.0  0.93517  0.39139  0.00483  1.0000
  H   H3613     1.0  0.98141  0.66128  0.28168  1.0000
  H   H3614     1.0  0.98278  0.61638  0.48792  1.0000
  H   H3615     1.0  0.76552  0.41584  0.44937  1.0000
  H   H3616     1.0  0.91463  0.40897  0.48287  1.0000
  C   C2038     1.0  0.92441  0.38259  0.48324  1.0000
  H   H3617     1.0  0.94548  0.43660  0.48165  1.0000
  H   H3618     1.0  0.89792  0.37344  0.49099  1.0000
  H   H3619     1.0  0.89402  0.66102  0.33983  1.0000
  H   H3620     1.0  0.90719  0.65914  0.37440  1.0000
  H   H3621     1.0  0.90413  0.34993  0.25451  1.0000
  H   H3622     1.0  0.87985  0.34156  0.14418  1.0000
  C   C2039     1.0  0.00172  0.46952  0.28737  1.0000
  C   C2040     1.0  0.97118  0.60987  0.47807  1.0000
  C   C2041     1.0  0.94805  0.42302  0.48966  1.0000
  H   H3623     1.0  0.88357  0.67026  0.15467  1.0000
  H   H3624     1.0  0.89238  0.61185  0.48771  1.0000
  H   H3625     1.0  0.81252  0.66663  0.31913  1.0000
  H   H3626     1.0  0.75428  0.39039  0.10183  1.0000
  H   H3627     1.0  0.83010  0.33966  0.21543  1.0000
  H   H3628     1.0  0.92135  0.40951  0.99426  1.0000
  H   H3629     1.0  0.92557  0.34082  0.24707  1.0000
  H   H3630     1.0  0.89557  0.39065  0.99347  1.0000
  H   H3631     1.0  0.94960  0.59443  0.49276  1.0000
  H   H3632     1.0  0.97604  0.42752  0.49286  1.0000
  Fe  Fe225     1.0  0.84571  0.35409  0.53184  1.0000
  H   H3633     1.0  0.99799  0.52977  0.72423  1.0000
  H   H3634     1.0  0.82272  0.36964  0.76525  1.0000
  C   C2042     1.0  0.76782  0.35631  0.61891  1.0000
  Fe  Fe226     1.0  0.84245  0.36559  0.60067  1.0000
  S   S447      1.0  0.84839  0.38849  0.63280  1.0000
  S   S448      1.0  0.82710  0.37232  0.55697  1.0000
  Fe  Fe227     1.0  0.94583  0.59258  0.67064  1.0000
  S   S449      1.0  0.92554  0.57709  0.64521  1.0000
  S   S450      1.0  0.97326  0.59183  0.64918  1.0000
  Fe  Fe228     1.0  0.91876  0.60610  0.71698  1.0000
  S   S451      1.0  0.89675  0.59174  0.69492  1.0000
  S   S452      1.0  0.91641  0.62377  0.75937  1.0000
  Fe  Fe229     1.0  0.91581  0.56906  0.69270  1.0000
  S   S453      1.0  0.90557  0.54138  0.69870  1.0000
  Fe  Fe230     1.0  0.90803  0.60082  0.64882  1.0000
  S   S454      1.0  0.88986  0.60699  0.60730  1.0000
  S   S455      1.0  0.93724  0.58283  0.71798  1.0000
  S   S456      1.0  0.92887  0.61687  0.67118  1.0000
  Fe  Fe231     1.0  0.91489  0.41415  0.77132  1.0000
  S   S457      1.0  0.89637  0.43350  0.79412  1.0000
  S   S458      1.0  0.90950  0.39400  0.73338  1.0000
  Fe  Fe232     1.0  0.94382  0.42048  0.81928  1.0000
  S   S459      1.0  0.92682  0.43968  0.84521  1.0000
  S   S460      1.0  0.97028  0.41406  0.84148  1.0000
  Fe  Fe233     1.0  0.90476  0.42089  0.83971  1.0000
  S   S461      1.0  0.88472  0.41597  0.87933  1.0000
  Fe  Fe234     1.0  0.92001  0.45077  0.79778  1.0000
  S   S462      1.0  0.92348  0.48053  0.79696  1.0000
  S   S463      1.0  0.92218  0.40097  0.81682  1.0000
  S   S464      1.0  0.93810  0.43214  0.77207  1.0000
  Fe  Fe235     1.0  0.84185  0.65740  0.87625  1.0000
  S   S465      1.0  0.82658  0.64794  0.91836  1.0000
  S   S466      1.0  0.84632  0.63821  0.83603  1.0000
  H   H3635     1.0  0.86485  0.37191  0.85374  1.0000
  Fe  Fe236     1.0  0.84443  0.66507  0.94643  1.0000
  H   H3636     1.0  0.83711  0.66486  0.76621  1.0000
  C   C2043     1.0  0.88186  0.36163  0.79515  1.0000
  H   H3637     1.0  0.90290  0.36630  0.82798  1.0000
  C   C2044     1.0  0.94187  0.58230  0.80372  1.0000
  C   C2045     1.0  0.76504  0.34809  0.59026  1.0000
  C   C2046     1.0  0.99044  0.41764  0.82186  1.0000
  H   H3638     1.0  0.85038  0.40957  0.74294  1.0000
  C   C2047     1.0  0.99142  0.41899  0.78926  1.0000
  H   H3639     1.0  0.81413  0.37310  0.71025  1.0000
  H   H3640     1.0  0.97960  0.41860  0.77556  1.0000
  C   C2048     1.0  0.99361  0.59605  0.66733  1.0000
  C   C2049     1.0  0.99474  0.60245  0.69784  1.0000
  H   H3641     1.0  0.97593  0.56795  0.58328  1.0000
  H   H3642     1.0  0.98295  0.60485  0.71124  1.0000
  H   H3643     1.0  0.75823  0.38564  0.56911  1.0000
  C   C2050     1.0  0.89667  0.62829  0.77953  1.0000
  C   C2051     1.0  0.88102  0.62059  0.77085  1.0000
  C   C2052     1.0  0.86573  0.62378  0.78843  1.0000
  C   C2053     1.0  0.86582  0.63504  0.81432  1.0000
  C   C2054     1.0  0.88141  0.64300  0.82263  1.0000
  C   C2055     1.0  0.89678  0.63955  0.80538  1.0000
  H   H3644     1.0  0.88078  0.61196  0.75095  1.0000
  H   H3645     1.0  0.85376  0.61743  0.78203  1.0000
  H   H3646     1.0  0.88167  0.65164  0.84258  1.0000
  H   H3647     1.0  0.90884  0.64559  0.81223  1.0000
  C   C2056     1.0  0.88444  0.62427  0.58067  1.0000
  C   C2057     1.0  0.87210  0.62118  0.55711  1.0000
  C   C2058     1.0  0.86744  0.63426  0.53512  1.0000
  C   C2059     1.0  0.87481  0.65083  0.53672  1.0000
  C   C2060     1.0  0.88705  0.65399  0.56050  1.0000
  C   C2061     1.0  0.89192  0.64081  0.58221  1.0000
  H   H3648     1.0  0.86611  0.60850  0.55574  1.0000
  C   C2062     1.0  0.85064  0.40204  0.79305  1.0000
  H   H3649     1.0  0.00299  0.34992  0.78104  1.0000
  H   H3650     1.0  0.90130  0.64352  0.60027  1.0000
  C   C2063     1.0  0.91166  0.52435  0.72511  1.0000
  C   C2064     1.0  0.90368  0.50799  0.72240  1.0000
  C   C2065     1.0  0.90757  0.49424  0.74345  1.0000
  C   C2066     1.0  0.91936  0.49676  0.76780  1.0000
  C   C2067     1.0  0.92747  0.51309  0.77036  1.0000
  C   C2068     1.0  0.92375  0.52677  0.74904  1.0000
  H   H3651     1.0  0.89432  0.50596  0.70395  1.0000
  H   H3652     1.0  0.90117  0.48182  0.74123  1.0000
  H   H3653     1.0  0.93662  0.51517  0.78909  1.0000
  H   H3654     1.0  0.93004  0.53923  0.75139  1.0000
  C   C2069     1.0  0.87034  0.37351  0.95283  1.0000
  C   C2070     1.0  0.86386  0.39064  0.95519  1.0000
  C   C2071     1.0  0.86849  0.40338  0.93263  1.0000
  C   C2072     1.0  0.87970  0.39929  0.90739  1.0000
  C   C2073     1.0  0.88613  0.38214  0.90494  1.0000
  C   C2074     1.0  0.88152  0.36941  0.92751  1.0000
  H   H3655     1.0  0.97285  0.36184  0.78546  1.0000
  H   H3656     1.0  0.86327  0.41652  0.93473  1.0000
  H   H3657     1.0  0.89436  0.37858  0.88534  1.0000
  H   H3658     1.0  0.88652  0.35619  0.92518  1.0000
  C   C2075     1.0  0.86544  0.38970  0.66073  1.0000
  C   C2076     1.0  0.86788  0.40545  0.67686  1.0000
  C   C2077     1.0  0.88128  0.40704  0.69912  1.0000
  C   C2078     1.0  0.89227  0.39279  0.70581  1.0000
  C   C2079     1.0  0.88974  0.37700  0.68988  1.0000
  C   C2080     1.0  0.87640  0.37543  0.66748  1.0000
  H   H3659     1.0  0.85950  0.41658  0.67176  1.0000
  H   H3660     1.0  0.88328  0.41937  0.71067  1.0000
  H   H3661     1.0  0.89822  0.36591  0.69473  1.0000
  H   H3662     1.0  0.87466  0.36323  0.65534  1.0000
  H   H3663     1.0  0.82596  0.37197  0.87154  1.0000
  C   C2081     1.0  0.85132  0.37671  0.84993  1.0000
  H   H3664     1.0  0.95030  0.37766  0.85038  1.0000
  H   H3665     1.0  0.92249  0.59585  0.83068  1.0000
  C   C2082     1.0  0.95060  0.63161  0.59380  1.0000
  H   H3666     1.0  0.93654  0.57023  0.56959  1.0000
  C   C2083     1.0  0.88815  0.58851  0.83844  1.0000
  C   C2084     1.0  0.90108  0.36079  0.80426  1.0000
  H   H3667     1.0  0.83308  0.64167  0.76668  1.0000
  H   H3668     1.0  0.97697  0.43126  0.98225  1.0000
  H   H3669     1.0  0.88002  0.55136  0.83959  1.0000
  H   H3670     1.0  0.84613  0.35884  0.81182  1.0000
  H   H3671     1.0  0.85669  0.43771  0.79249  1.0000
  H   H3672     1.0  0.85330  0.36131  0.75840  1.0000
  C   C2085     1.0  0.87479  0.38075  0.79481  1.0000
  H   H3673     1.0  0.95345  0.57276  0.54095  1.0000
  H   H3674     1.0  0.96210  0.63552  0.57982  1.0000
  H   H3675     1.0  0.88770  0.65223  0.72537  1.0000
  C   C2086     1.0  0.83106  0.37779  0.74989  1.0000
  C   C2087     1.0  0.90964  0.37666  0.50481  1.0000
  C   C2088     1.0  0.98175  0.55090  0.70822  1.0000
  H   H3676     1.0  0.82662  0.64225  0.71007  1.0000
  H   H3677     1.0  0.83553  0.38048  0.69971  1.0000
  C   C2089     1.0  0.99969  0.54203  0.71074  1.0000
  C   C2090     1.0  0.91545  0.61232  0.51691  1.0000
  H   H3678     1.0  0.78053  0.36148  0.62412  1.0000
  H   H3679     1.0  0.83632  0.40398  0.79620  1.0000
  C   C2091     1.0  0.90039  0.60259  0.50192  1.0000
  H   H3680     1.0  0.87917  0.38748  0.81639  1.0000
  C   C2092     1.0  0.85641  0.41367  0.76518  1.0000
  H   H3681     1.0  0.81560  0.65684  0.75829  1.0000
  H   H3682     1.0  0.93095  0.63385  0.55813  1.0000
  H   H3683     1.0  0.76296  0.65363  0.80801  1.0000
  H   H3684     1.0  0.98262  0.35990  0.82363  1.0000
  H   H3685     1.0  0.96381  0.43239  0.52795  1.0000
  H   H3686     1.0  0.99241  0.43093  0.95033  1.0000
  H   H3687     1.0  0.85791  0.63161  0.51725  1.0000
  H   H3688     1.0  0.85075  0.39085  0.85536  1.0000
  C   C2093     1.0  0.98247  0.42316  0.96301  1.0000
  C   C2094     1.0  0.96223  0.56358  0.58562  1.0000
  C   C2095     1.0  0.93636  0.62321  0.57318  1.0000
  H   H3689     1.0  0.90924  0.45590  0.94226  1.0000
  C   C2096     1.0  0.86980  0.58865  0.85393  1.0000
  H   H3690     1.0  0.95831  0.56413  0.61064  1.0000
  N   N116      1.0  0.85533  0.38287  0.79067  1.0000
  C   C2097     1.0  0.82819  0.37201  0.71615  1.0000
  H   H3691     1.0  0.90499  0.52698  0.86767  1.0000
  S   S467      1.0  0.82507  0.34327  0.61453  1.0000
  H   H3692     1.0  0.77690  0.63123  0.95236  1.0000
  H   H3693     1.0  0.83132  0.37657  0.81464  1.0000
  H   H3694     1.0  0.98257  0.56303  0.69404  1.0000
  N   N117      1.0  0.86006  0.64698  0.68126  1.0000
  C   C2098     1.0  0.84807  0.65544  0.65747  1.0000
  C   C2099     1.0  0.85397  0.65122  0.71420  1.0000
  C   C2100     1.0  0.90898  0.65892  0.69529  1.0000
  C   C2101     1.0  0.86178  0.62750  0.67676  1.0000
  C   C2102     1.0  0.84468  0.61706  0.67665  1.0000
  C   C2103     1.0  0.85307  0.65269  0.62260  1.0000
  H   H3695     1.0  0.89778  0.58895  0.85781  1.0000
  C   C2104     1.0  0.84816  0.59809  0.66723  1.0000
  H   H3696     1.0  0.96061  0.39532  0.96775  1.0000
  H   H3697     1.0  0.94511  0.59513  0.59881  1.0000
  C   C2105     1.0  0.95002  0.57498  0.56575  1.0000
  H   H3698     1.0  0.83450  0.65086  0.66021  1.0000
  H   H3699     1.0  0.85913  0.64133  0.73103  1.0000
  C   C2106     1.0  0.92456  0.58240  0.82154  1.0000
  H   H3700     1.0  0.94939  0.41486  0.97725  1.0000
  H   H3701     1.0  0.90616  0.38699  0.52201  1.0000
  H   H3702     1.0  0.86907  0.62453  0.65481  1.0000
  H   H3703     1.0  0.86988  0.62158  0.69563  1.0000
  H   H3704     1.0  0.83507  0.62252  0.65985  1.0000
  H   H3705     1.0  0.83891  0.61684  0.70049  1.0000
  H   H3706     1.0  0.94623  0.58966  0.99043  1.0000
  H   H3707     1.0  0.85461  0.63862  0.61704  1.0000
  H   H3708     1.0  0.82649  0.65350  0.60448  1.0000
  H   H3709     1.0  0.96493  0.59792  0.57843  1.0000
  H   H3710     1.0  0.85381  0.59742  0.64324  1.0000
  H   H3711     1.0  0.85731  0.59163  0.68382  1.0000
  H   H3712     1.0  0.83575  0.59079  0.66747  1.0000
  H   H3713     1.0  0.85978  0.59267  0.83651  1.0000
  C   C2107     1.0  0.89196  0.64925  0.70112  1.0000
  C   C2108     1.0  0.96073  0.60094  0.50400  1.0000
  H   H3714     1.0  0.89496  0.63507  0.69965  1.0000
  H   H3715     1.0  0.93083  0.37641  0.95710  1.0000
  H   H3716     1.0  0.93172  0.64509  0.62392  1.0000
  N   N118      1.0  0.93900  0.40113  0.93710  1.0000
  C   C2109     1.0  0.95399  0.40696  0.95713  1.0000
  C   C2110     1.0  0.92637  0.39033  0.95617  1.0000
  C   C2111     1.0  0.94663  0.38968  0.91158  1.0000
  C   C2112     1.0  0.92972  0.41638  0.92166  1.0000
  C   C2113     1.0  0.92135  0.43011  0.94377  1.0000
  C   C2114     1.0  0.96815  0.41794  0.94030  1.0000
  C   C2115     1.0  0.93346  0.37934  0.89166  1.0000
  H   H3717     1.0  0.97649  0.55416  0.73177  1.0000
  H   H3718     1.0  0.85521  0.39407  0.97434  1.0000
  C   C2116     1.0  0.91555  0.44650  0.92590  1.0000
  H   H3719     1.0  0.90952  0.42458  0.95492  1.0000
  C   C2117     1.0  0.94291  0.36884  0.86620  1.0000
  H   H3720     1.0  0.82913  0.66549  0.70890  1.0000
  C   C2118     1.0  0.98325  0.36689  0.80083  1.0000
  H   H3721     1.0  0.91340  0.39023  0.94455  1.0000
  C   C2119     1.0  0.95469  0.61427  0.52901  1.0000
  H   H3722     1.0  0.95601  0.37995  0.92168  1.0000
  H   H3723     1.0  0.95423  0.39764  0.89465  1.0000
  H   H3724     1.0  0.93859  0.42310  0.90498  1.0000
  H   H3725     1.0  0.91891  0.41175  0.90682  1.0000
  C   C2120     1.0  0.83401  0.65320  0.71994  1.0000
  H   H3726     1.0  0.93599  0.38481  0.49807  1.0000
  H   H3727     1.0  0.97456  0.41050  0.92112  1.0000
  H   H3728     1.0  0.96244  0.43016  0.93042  1.0000
  H   H3729     1.0  0.92405  0.38827  0.88005  1.0000
  H   H3730     1.0  0.92600  0.36996  0.90614  1.0000
  H   H3731     1.0  0.83666  0.43416  0.77135  1.0000
  H   H3732     1.0  0.83253  0.35823  0.71282  1.0000
  H   H3733     1.0  0.86536  0.65946  0.61687  1.0000
  H   H3734     1.0  0.91187  0.51467  0.83391  1.0000
  H   H3735     1.0  0.92693  0.45292  0.91480  1.0000
  H   H3736     1.0  0.90595  0.44322  0.90757  1.0000
  H   H3737     1.0  0.76034  0.40833  0.57929  1.0000
  C   C2121     1.0  0.77031  0.62749  0.93036  1.0000
  H   H3738     1.0  0.93763  0.41897  0.50610  1.0000
  H   H3739     1.0  0.91683  0.59596  0.55842  1.0000
  H   H3740     1.0  0.97250  0.54202  0.69660  1.0000
  H   H3741     1.0  0.90907  0.36810  0.78703  1.0000
  N   N119      1.0  0.94213  0.60777  0.55358  1.0000
  C   C2122     1.0  0.90915  0.57741  0.80010  1.0000
  C   C2123     1.0  0.87778  0.57246  0.79317  1.0000
  C   C2124     1.0  0.87973  0.55855  0.76720  1.0000
  C   C2125     1.0  0.86547  0.56080  0.74258  1.0000
  H   H3742     1.0  0.90711  0.58850  0.78343  1.0000
  H   H3743     1.0  0.91357  0.56639  0.78516  1.0000
  H   H3744     1.0  0.86512  0.56965  0.80482  1.0000
  H   H3745     1.0  0.87605  0.58540  0.78157  1.0000
  H   H3746     1.0  0.91928  0.54533  0.82623  1.0000
  H   H3747     1.0  0.90308  0.53897  0.79899  1.0000
  H   H3748     1.0  0.89240  0.55943  0.75484  1.0000
  H   H3749     1.0  0.87829  0.54527  0.77728  1.0000
  H   H3750     1.0  0.86724  0.55069  0.72421  1.0000
  H   H3751     1.0  0.85235  0.55929  0.75331  1.0000
  H   H3752     1.0  0.86628  0.57383  0.73125  1.0000
  H   H3753     1.0  0.94461  0.56926  0.79336  1.0000
  H   H3754     1.0  0.94155  0.59235  0.78489  1.0000
  H   H3755     1.0  0.96686  0.61887  0.54007  1.0000
  H   H3756     1.0  0.00056  0.37102  0.76233  1.0000
  C   C2126     1.0  0.94353  0.64805  0.60989  1.0000
  H   H3757     1.0  0.92555  0.61936  0.58925  1.0000
  C   C2127     1.0  0.85109  0.43275  0.77039  1.0000
  H   H3758     1.0  0.95263  0.58547  0.81993  1.0000
  C   C2128     1.0  0.82976  0.65422  0.75488  1.0000
  H   H3759     1.0  0.84036  0.35298  0.86991  1.0000
  C   C2129     1.0  0.77066  0.66287  0.85353  1.0000
  S   S468      1.0  0.78157  0.34696  0.56077  1.0000
  C   C2130     1.0  0.96510  0.42319  0.50803  1.0000
  H   H3760     1.0  0.92571  0.57333  0.84176  1.0000
  H   H3761     1.0  0.92893  0.58813  0.52609  1.0000
  H   H3762     1.0  0.85656  0.40774  0.81438  1.0000
  H   H3763     1.0  0.84318  0.65839  0.57612  1.0000
  H   H3764     1.0  0.88916  0.52013  0.83899  1.0000
  C   C2131     1.0  0.86872  0.60171  0.88084  1.0000
  H   H3765     1.0  0.95509  0.62240  0.61233  1.0000
  H   H3766     1.0  0.88081  0.35581  0.77151  1.0000
  H   H3767     1.0  0.93050  0.43435  0.96205  1.0000
  H   H3768     1.0  0.85885  0.38120  0.74036  1.0000
  S   S469      1.0  0.86859  0.66827  0.51090  1.0000
  H   H3769     1.0  0.91380  0.36476  0.51791  1.0000
  H   H3770     1.0  0.83817  0.40806  0.52018  1.0000
  H   H3771     1.0  0.80644  0.38620  0.50024  1.0000
  Fe  Fe237     1.0  0.81104  0.34880  0.56937  1.0000
  C   C2132     1.0  0.95098  0.59456  0.57497  1.0000
  C   C2133     1.0  0.89331  0.55677  0.83621  1.0000
  H   H3772     1.0  0.87250  0.61493  0.87274  1.0000
  H   H3773     1.0  0.78417  0.65883  0.85074  1.0000
  H   H3774     1.0  0.85943  0.66389  0.72202  1.0000
  S   S470      1.0  0.86193  0.34872  0.57477  1.0000
  H   H3775     1.0  0.86299  0.62185  0.98434  1.0000
  C   C2134     1.0  0.90262  0.52493  0.84236  1.0000
  H   H3776     1.0  0.86649  0.57557  0.86331  1.0000
  H   H3777     1.0  0.95359  0.65327  0.62580  1.0000
  H   H3778     1.0  0.90571  0.34699  0.80445  1.0000
  H   H3779     1.0  0.96443  0.57708  0.97535  1.0000
  H   H3780     1.0  0.94017  0.65826  0.59227  1.0000
  H   H3781     1.0  0.96949  0.59099  0.51481  1.0000
  C   C2135     1.0  0.87794  0.65469  0.67667  1.0000
  H   H3782     1.0  0.87742  0.59756  0.90029  1.0000
  N   N120      1.0  0.89228  0.57336  0.81687  1.0000
  H   H3783     1.0  0.88351  0.65091  0.65353  1.0000
  C   C2136     1.0  0.00107  0.36411  0.78523  1.0000
  C   C2137     1.0  0.85050  0.37558  0.75921  1.0000
  C   C2138     1.0  0.90536  0.54181  0.82388  1.0000
  H   H3784     1.0  0.89798  0.55953  0.86030  1.0000
  C   C2139     1.0  0.92591  0.60017  0.53941  1.0000
  H   H3785     1.0  0.88947  0.60116  0.82574  1.0000
  H   H3786     1.0  0.81619  0.41043  0.53525  1.0000
  H   H3787     1.0  0.85512  0.60254  0.88986  1.0000
  H   H3788     1.0  0.96584  0.60051  0.97742  1.0000
  H   H3789     1.0  0.93326  0.36174  0.85199  1.0000
  H   H3790     1.0  0.82646  0.39153  0.75171  1.0000
  S   S471      1.0  0.86505  0.35672  0.98056  1.0000
  H   H3791     1.0  0.98064  0.38102  0.80468  1.0000
  H   H3792     1.0  0.88181  0.38744  0.77553  1.0000
  C   C2140     1.0  0.84547  0.37319  0.81582  1.0000
  H   H3793     1.0  0.77299  0.61342  0.92595  1.0000
  H   H3794     1.0  0.98902  0.41138  0.97302  1.0000
  C   C2141     1.0  0.92350  0.39534  0.99100  1.0000
  H   H3795     1.0  0.89187  0.59676  0.52016  1.0000
  H   H3796     1.0  0.82696  0.42883  0.51776  1.0000
  H   H3797     1.0  0.77595  0.63530  0.91091  1.0000
  C   C2142     1.0  0.83907  0.66025  0.60087  1.0000
  H   H3798     1.0  0.87074  0.41304  0.76224  1.0000
  H   H3799     1.0  0.85603  0.44085  0.75071  1.0000
  H   H3800     1.0  0.84731  0.66980  0.66157  1.0000
  H   H3801     1.0  0.91892  0.65447  0.71253  1.0000
  H   H3802     1.0  0.89275  0.66678  0.56217  1.0000
  H   H3803     1.0  0.95209  0.35916  0.87678  1.0000
  H   H3804     1.0  0.90973  0.62363  0.52960  1.0000
  H   H3805     1.0  0.96154  0.54979  0.57791  1.0000
  H   H3806     1.0  0.87697  0.66924  0.67655  1.0000
  C   C2143     1.0  0.83970  0.36732  0.87357  1.0000
  H   H3807     1.0  0.92379  0.61728  0.49767  1.0000
  C   C2144     1.0  0.82528  0.41448  0.51630  1.0000
  H   H3808     1.0  0.80596  0.35733  0.50199  1.0000
  C   C2145     1.0  0.96071  0.58873  0.98940  1.0000
  C   C2146     1.0  0.75859  0.65994  0.82931  1.0000
  H   H3809     1.0  0.75616  0.36538  0.66207  1.0000
  H   H3810     1.0  0.96819  0.40998  0.51757  1.0000
  H   H3811     1.0  0.91407  0.65618  0.67143  1.0000
  H   H3812     1.0  0.94918  0.62599  0.51689  1.0000
  H   H3813     1.0  0.87469  0.35334  0.81199  1.0000
  H   H3814     1.0  0.84425  0.37009  0.89767  1.0000
  C   C2147     1.0  0.76522  0.67092  0.88131  1.0000
  C   C2148     1.0  0.75394  0.35849  0.64045  1.0000
  Fe  Fe238     1.0  0.84816  0.69564  0.40877  1.0000
  H   H3815     1.0  0.81202  0.79430  0.43935  1.0000
  S   S472      1.0  0.85176  0.72256  0.38635  1.0000
  C   C2149     1.0  0.79196  0.74891  0.40447  1.0000
  Fe  Fe239     1.0  0.91289  0.94903  0.19872  1.0000
  S   S473      1.0  0.93376  0.93931  0.23131  1.0000
  S   S474      1.0  0.90397  0.97772  0.19882  1.0000
  Fe  Fe240     1.0  0.91255  0.91455  0.16001  1.0000
  S   S475      1.0  0.93370  0.90310  0.19084  1.0000
  S   S476      1.0  0.90651  0.89564  0.11930  1.0000
  Fe  Fe241     1.0  0.91848  0.91428  0.23131  1.0000
  S   S477      1.0  0.91679  0.89736  0.27518  1.0000
  Fe  Fe242     1.0  0.94716  0.92884  0.18826  1.0000
  S   S478      1.0  0.97512  0.93436  0.17245  1.0000
  S   S479      1.0  0.89652  0.92448  0.20119  1.0000
  S   S480      1.0  0.92700  0.93984  0.15523  1.0000
  Fe  Fe243     1.0  0.84417  0.82432  0.43363  1.0000
  S   S481      1.0  0.83021  0.84044  0.47003  1.0000
  S   S482      1.0  0.84930  0.79696  0.45341  1.0000
  Fe  Fe244     1.0  0.84453  0.85544  0.38781  1.0000
  S   S483      1.0  0.83042  0.87314  0.42177  1.0000
  S   S484      1.0  0.84828  0.86708  0.33900  1.0000
  Fe  Fe245     1.0  0.84875  0.86200  0.45846  1.0000
  S   S485      1.0  0.83426  0.67573  0.37933  1.0000
  Fe  Fe246     1.0  0.81316  0.84989  0.43026  1.0000
  S   S486      1.0  0.78350  0.84768  0.43562  1.0000
  S   S487      1.0  0.86370  0.84540  0.42359  1.0000
  S   S488      1.0  0.82629  0.83278  0.39471  1.0000
  C   C2150     1.0  0.76821  0.84816  0.40434  1.0000
  C   C2151     1.0  0.77240  0.85488  0.37481  1.0000
  H   H3816     1.0  0.78542  0.85956  0.37027  1.0000
  H   H3817     1.0  0.88995  0.79653  0.45949  1.0000
  H   H3818     1.0  0.97971  0.89523  0.16448  1.0000
  H   H3819     1.0  0.90640  0.83145  0.47824  1.0000
  H   H3820     1.0  0.76431  0.77217  0.40620  1.0000
  H   H3821     1.0  0.98533  0.91203  0.22553  1.0000
  H   H3822     1.0  0.99698  0.95369  0.23179  1.0000
  C   C2152     1.0  0.89758  0.88880  0.29205  1.0000
  C   C2153     1.0  0.89908  0.87664  0.31668  1.0000
  C   C2154     1.0  0.88414  0.86981  0.33135  1.0000
  C   C2155     1.0  0.86754  0.87511  0.32144  1.0000
  C   C2156     1.0  0.86605  0.88730  0.29684  1.0000
  C   C2157     1.0  0.88098  0.89410  0.28213  1.0000
  H   H3823     1.0  0.91189  0.87246  0.32443  1.0000
  H   H3824     1.0  0.88545  0.86033  0.35005  1.0000
  H   H3825     1.0  0.85325  0.89163  0.28934  1.0000
  H   H3826     1.0  0.87965  0.90358  0.26343  1.0000
  C   C2158     1.0  0.89052  0.89139  0.08974  1.0000
  C   C2159     1.0  0.87451  0.90038  0.08814  1.0000
  C   C2160     1.0  0.86208  0.89601  0.06515  1.0000
  C   C2161     1.0  0.86543  0.88275  0.04300  1.0000
  C   C2162     1.0  0.88157  0.87393  0.04431  1.0000
  C   C2163     1.0  0.89390  0.87813  0.06762  1.0000
  H   H3827     1.0  0.87166  0.91070  0.10460  1.0000
  H   H3828     1.0  0.84972  0.90300  0.06446  1.0000
  H   H3829     1.0  0.88443  0.86368  0.02767  1.0000
  H   H3830     1.0  0.90617  0.87102  0.06846  1.0000
  H   H3831     1.0  0.81212  0.76457  0.42601  1.0000
  C   C2164     1.0  0.90727  0.99306  0.22932  1.0000
  C   C2165     1.0  0.90734  0.98809  0.26086  1.0000
  H   H3832     1.0  0.80669  0.78556  0.32533  1.0000
  H   H3833     1.0  0.90631  0.97443  0.26706  1.0000
  C   C2166     1.0  0.85109  0.74310  0.40554  1.0000
  C   C2167     1.0  0.84870  0.74454  0.43790  1.0000
  C   C2168     1.0  0.84818  0.76113  0.45209  1.0000
  C   C2169     1.0  0.84987  0.77646  0.43414  1.0000
  C   C2170     1.0  0.85226  0.77504  0.40180  1.0000
  C   C2171     1.0  0.85283  0.75845  0.38761  1.0000
  H   H3834     1.0  0.84738  0.73285  0.45199  1.0000
  H   H3835     1.0  0.76157  0.80449  0.39878  1.0000
  H   H3836     1.0  0.85384  0.78669  0.38774  1.0000
  H   H3837     1.0  0.85475  0.75748  0.36259  1.0000
  H   H3838     1.0  0.82846  0.79226  0.33494  1.0000
  C   C2172     1.0  0.81239  0.78618  0.37527  1.0000
  N   N121      1.0  0.88245  0.91500  0.39654  1.0000
  C   C2173     1.0  0.88934  0.93125  0.38092  1.0000
  C   C2174     1.0  0.87733  0.91929  0.42979  1.0000
  C   C2175     1.0  0.89656  0.90107  0.39545  1.0000
  C   C2176     1.0  0.86658  0.90840  0.37989  1.0000
  C   C2177     1.0  0.85118  0.92162  0.37639  1.0000
  C   C2178     1.0  0.89253  0.93007  0.34499  1.0000
  C   C2179     1.0  0.89241  0.88372  0.41256  1.0000
  H   H3839     1.0  0.94006  0.97974  0.30074  1.0000
  C   C2180     1.0  0.83646  0.91384  0.35721  1.0000
  C   C2181     1.0  0.89971  0.94716  0.33194  1.0000
  C   C2182     1.0  0.90810  0.87119  0.41201  1.0000
  H   H3840     1.0  0.90202  0.93489  0.39141  1.0000
  H   H3841     1.0  0.88052  0.94265  0.38540  1.0000
  H   H3842     1.0  0.86844  0.93090  0.43022  1.0000
  H   H3843     1.0  0.94947  0.84075  0.09659  1.0000
  H   H3844     1.0  0.90903  0.90613  0.40481  1.0000
  H   H3845     1.0  0.89952  0.89745  0.37086  1.0000
  H   H3846     1.0  0.87023  0.90356  0.35633  1.0000
  H   H3847     1.0  0.86116  0.89689  0.39233  1.0000
  H   H3848     1.0  0.85527  0.93377  0.36442  1.0000
  H   H3849     1.0  0.84570  0.92507  0.39967  1.0000
  H   H3850     1.0  0.90213  0.91960  0.33923  1.0000
  H   H3851     1.0  0.88029  0.92743  0.33225  1.0000
  H   H3852     1.0  0.88146  0.87708  0.40100  1.0000
  C   C2183     1.0  0.95588  0.92697  0.08859  1.0000
  H   H3853     1.0  0.90085  0.91150  0.45628  1.0000
  H   H3854     1.0  0.83163  0.90170  0.36840  1.0000
  H   H3855     1.0  0.82543  0.92335  0.35556  1.0000
  H   H3856     1.0  0.84107  0.91076  0.33316  1.0000
  H   H3857     1.0  0.90193  0.94585  0.30633  1.0000
  H   H3858     1.0  0.89030  0.95811  0.33590  1.0000
  H   H3859     1.0  0.91235  0.95024  0.34306  1.0000
  S   S489      1.0  0.83301  0.68998  0.45269  1.0000
  H   H3860     1.0  0.91931  0.87696  0.42444  1.0000
  H   H3861     1.0  0.90082  0.93385  0.44312  1.0000
  C   C2184     1.0  0.95726  0.90895  0.10395  1.0000
  H   H3862     1.0  0.90463  0.85880  0.42398  1.0000
  H   H3863     1.0  0.99132  0.86256  0.16817  1.0000
  H   H3864     1.0  0.96869  0.85677  0.16300  1.0000
  N   N122      1.0  0.86880  0.86556  0.18498  1.0000
  C   C2185     1.0  0.85331  0.85828  0.20242  1.0000
  C   C2186     1.0  0.87047  0.85726  0.15292  1.0000
  C   C2187     1.0  0.88495  0.86078  0.20351  1.0000
  C   C2188     1.0  0.86790  0.88521  0.18227  1.0000
  C   C2189     1.0  0.85136  0.89315  0.16694  1.0000
  C   C2190     1.0  0.85029  0.86512  0.23609  1.0000
  C   C2191     1.0  0.90265  0.86548  0.18806  1.0000
  C   C2192     1.0  0.85336  0.85188  0.13642  1.0000
  C   C2193     1.0  0.85689  0.84580  0.10299  1.0000
  C   C2194     1.0  0.85120  0.91306  0.16940  1.0000
  C   C2195     1.0  0.83339  0.85808  0.25008  1.0000
  C   C2196     1.0  0.91794  0.85876  0.20778  1.0000
  H   H3865     1.0  0.85460  0.84377  0.20396  1.0000
  H   H3866     1.0  0.84100  0.86082  0.18960  1.0000
  H   H3867     1.0  0.87780  0.86595  0.13664  1.0000
  H   H3868     1.0  0.87839  0.84496  0.15427  1.0000
  H   H3869     1.0  0.88521  0.84650  0.20873  1.0000
  H   H3870     1.0  0.88486  0.86748  0.22658  1.0000
  H   H3871     1.0  0.86962  0.89134  0.20560  1.0000
  H   H3872     1.0  0.87900  0.89005  0.16796  1.0000
  H   H3873     1.0  0.83926  0.88849  0.17827  1.0000
  H   H3874     1.0  0.85119  0.88992  0.14169  1.0000
  H   H3875     1.0  0.86102  0.86077  0.25175  1.0000
  H   H3876     1.0  0.84929  0.87956  0.23630  1.0000
  H   H3877     1.0  0.90387  0.87984  0.18610  1.0000
  H   H3878     1.0  0.90410  0.85983  0.16434  1.0000
  H   H3879     1.0  0.84733  0.84078  0.14912  1.0000
  H   H3880     1.0  0.84369  0.86272  0.13540  1.0000
  H   H3881     1.0  0.84451  0.84177  0.09192  1.0000
  H   H3882     1.0  0.86234  0.85661  0.08892  1.0000
  H   H3883     1.0  0.86619  0.83455  0.10269  1.0000
  H   H3884     1.0  0.83954  0.91853  0.15729  1.0000
  H   H3885     1.0  0.85070  0.91715  0.19429  1.0000
  H   H3886     1.0  0.86302  0.91857  0.15818  1.0000
  H   H3887     1.0  0.83167  0.86309  0.27427  1.0000
  H   H3888     1.0  0.82196  0.86243  0.23603  1.0000
  H   H3889     1.0  0.83386  0.84359  0.25118  1.0000
  H   H3890     1.0  0.91749  0.84434  0.21041  1.0000
  H   H3891     1.0  0.93042  0.86217  0.19613  1.0000
  H   H3892     1.0  0.91765  0.86487  0.23132  1.0000
  H   H3893     1.0  0.95171  0.91014  0.12784  1.0000
  H   H3894     1.0  0.82085  0.79393  0.39065  1.0000
  H   H3895     1.0  0.81722  0.77247  0.37532  1.0000
  H   H3896     1.0  0.83147  0.79461  0.99975  1.0000
  C   C2197     1.0  0.80128  0.73179  0.41320  1.0000
  C   C2198     1.0  0.89252  0.92327  0.45239  1.0000
  H   H3897     1.0  0.78892  0.80124  0.38281  1.0000
  H   H3898     1.0  0.98678  0.85219  0.08016  1.0000
  C   C2199     1.0  0.96121  0.84123  0.08126  1.0000
  C   C2200     1.0  0.99555  0.92668  0.18671  1.0000
  H   H3899     1.0  0.78272  0.72164  0.30330  1.0000
  C   C2201     1.0  0.75864  0.90162  0.41596  1.0000
  C   C2202     1.0  0.79311  0.78737  0.38622  1.0000
  S   S490      1.0  0.86732  0.87774  0.48990  1.0000
  H   H3900     1.0  0.96323  0.93669  0.10231  1.0000
  C   C2203     1.0  0.79760  0.76395  0.42627  1.0000
  H   H3901     1.0  0.97117  0.99734  0.26795  1.0000
  H   H3902     1.0  0.97886  0.84684  0.11850  1.0000
  H   H3903     1.0  0.76007  0.89863  0.44129  1.0000
  H   H3904     1.0  0.78517  0.77977  0.36950  1.0000
  C   C2204     1.0  0.77012  0.78072  0.42419  1.0000
  C   C2205     1.0  0.96854  0.87187  0.09898  1.0000
  C   C2206     1.0  0.81452  0.79324  0.34201  1.0000
  H   H3905     1.0  0.81554  0.73291  0.40947  1.0000
  H   H3906     1.0  0.79504  0.75182  0.37964  1.0000
  H   H3907     1.0  0.94843  0.00097  0.25887  1.0000
  H   H3908     1.0  0.97620  0.85742  0.21843  1.0000
  H   H3909     1.0  0.79655  0.72100  0.39837  1.0000
  H   H3910     1.0  0.94198  0.93124  0.08780  1.0000
  C   C2207     1.0  0.77912  0.71996  0.32833  1.0000
  C   C2208     1.0  0.76155  0.72881  0.33541  1.0000
  C   C2209     1.0  0.95780  0.99790  0.27796  1.0000
  H   H3911     1.0  0.98360  0.87954  0.21510  1.0000
  H   H3912     1.0  0.96295  0.97542  0.30831  1.0000
  H   H3913     1.0  0.95964  0.88636  0.15364  1.0000
  C   C2210     1.0  0.88552  0.92907  0.48430  1.0000
  H   H3914     1.0  0.98328  0.97275  0.22713  1.0000
  H   H3915     1.0  0.79877  0.72829  0.43806  1.0000
  H   H3916     1.0  0.86958  0.90853  0.44038  1.0000
  H   H3917     1.0  0.90763  0.99689  0.30879  1.0000
  H   H3918     1.0  0.77862  0.70584  0.33396  1.0000
  H   H3919     1.0  0.79278  0.67432  0.36054  1.0000
  N   N123      1.0  0.97954  0.88418  0.11797  1.0000
  H   H3920     1.0  0.82060  0.78647  0.03411  1.0000
  C   C2211     1.0  0.95337  0.97974  0.29037  1.0000
  H   H3921     1.0  0.79421  0.75966  0.45039  1.0000
  N   N124      1.0  0.78959  0.78169  0.41949  1.0000
  H   H3922     1.0  0.95374  0.97023  0.27082  1.0000
  C   C2212     1.0  0.75951  0.85620  0.35139  1.0000
  C   C2213     1.0  0.79756  0.79480  0.44126  1.0000
  H   H3923     1.0  0.79564  0.77723  0.00260  1.0000
  H   H3924     1.0  0.76698  0.77438  0.44700  1.0000
  H   H3925     1.0  0.88888  0.88592  0.43733  1.0000
  C   C2214     1.0  0.97430  0.86995  0.20562  1.0000
  H   H3926     1.0  0.77776  0.74661  0.40662  1.0000
  H   H3927     1.0  0.91200  0.86816  0.38754  1.0000
  H   H3928     1.0  0.84648  0.76205  0.47717  1.0000
  H   H3929     1.0  0.79386  0.80840  0.43426  1.0000
  S   S491      1.0  0.87012  0.67694  0.42112  1.0000
  H   H3930     1.0  0.98354  0.91219  0.11951  1.0000
  H   H3931     1.0  0.96103  0.92659  0.06427  1.0000
  C   C2215     1.0  0.97762  0.86715  0.17069  1.0000
  H   H3932     1.0  0.90916  0.80627  0.44289  1.0000
  C   C2216     1.0  0.89639  0.80912  0.45429  1.0000
  H   H3933     1.0  0.81121  0.80469  0.01298  1.0000
  S   S492      1.0  0.84875  0.87747  0.01529  1.0000
  H   H3934     1.0  0.76278  0.86194  0.32897  1.0000
  H   H3935     1.0  0.76432  0.80767  0.44009  1.0000
  H   H3936     1.0  0.94894  0.90004  0.09038  1.0000
  C   C2217     1.0  0.99481  0.96733  0.23971  1.0000
  H   H3937     1.0  0.95493  0.87167  0.10833  1.0000
  H   H3938     1.0  0.96730  0.87669  0.07439  1.0000
  H   H3939     1.0  0.99193  0.96726  0.26520  1.0000
  H   H3940     1.0  0.88817  0.81672  0.43768  1.0000
  C   C2218     1.0  0.97514  0.85270  0.09577  1.0000
  H   H3941     1.0  0.96076  0.87473  0.20990  1.0000
  C   C2219     1.0  0.97392  0.88409  0.15184  1.0000
  C   C2220     1.0  0.89921  0.81939  0.48437  1.0000
  H   H3942     1.0  0.91343  0.67397  0.34354  1.0000
  H   H3943     1.0  0.98211  0.90351  0.08115  1.0000
  H   H3944     1.0  0.96642  0.82772  0.07841  1.0000
  H   H3945     1.0  0.81039  0.80720  0.34076  1.0000
  C   C2221     1.0  0.97656  0.90244  0.10523  1.0000
  H   H3946     1.0  0.76333  0.74301  0.33184  1.0000
  H   H3947     1.0  0.95737  0.84633  0.05786  1.0000
  H   H3948     1.0  0.76423  0.89058  0.40220  1.0000
  C   C2222     1.0  0.99696  0.91580  0.21294  1.0000
  H   H3949     1.0  0.76619  0.91352  0.41048  1.0000
  C   C2223     1.0  0.75990  0.79834  0.42214  1.0000
  H   H3950     1.0  0.75847  0.72643  0.36044  1.0000
  H   H3951     1.0  0.85659  0.00030  0.17996  1.0000
  H   H3952     1.0  0.78947  0.72583  0.34274  1.0000
  C   C2224     1.0  0.81851  0.79214  0.01045  1.0000
  C   C2225     1.0  0.90800  0.00088  0.28449  1.0000
  C   C2226     1.0  0.99872  0.87983  0.11406  1.0000
  H   H3953     1.0  0.00173  0.86621  0.12132  1.0000
  H   H3954     1.0  0.79844  0.77979  0.48545  1.0000
  H   H3955     1.0  0.77035  0.67490  0.31864  1.0000
  C   C2227     1.0  0.79327  0.79246  0.47657  1.0000
  H   H3956     1.0  0.87834  0.94172  0.48224  1.0000
  C   C2228     1.0  0.76663  0.67167  0.34239  1.0000
  H   H3957     1.0  0.87650  0.83628  0.48817  1.0000
  H   H3958     1.0  0.79676  0.81985  0.48835  1.0000
  H   H3959     1.0  0.77903  0.79309  0.48107  1.0000
  H   H3960     1.0  0.00238  0.88047  0.08881  1.0000
  C   C2229     1.0  0.77941  0.67126  0.36604  1.0000
  H   H3961     1.0  0.92517  0.67098  0.18800  1.0000
  Fe  Fe247     1.0  0.84099  0.69566  0.89889  1.0000
  H   H3962     1.0  0.79905  0.75183  0.95750  1.0000
  S   S493      1.0  0.84557  0.72347  0.88048  1.0000
  H   H3963     1.0  0.92262  0.84797  0.76488  1.0000
  Fe  Fe248     1.0  0.91540  0.94515  0.70114  1.0000
  S   S494      1.0  0.93612  0.92942  0.72612  1.0000
  S   S495      1.0  0.91249  0.97509  0.70466  1.0000
  Fe  Fe249     1.0  0.90259  0.91288  0.66349  1.0000
  S   S496      1.0  0.92260  0.89526  0.68665  1.0000
  S   S497      1.0  0.88082  0.90149  0.63232  1.0000
  Fe  Fe250     1.0  0.91541  0.90887  0.73154  1.0000
  S   S498      1.0  0.91439  0.89415  0.77823  1.0000
  Fe  Fe251     1.0  0.94176  0.91708  0.67950  1.0000
  S   S499      1.0  0.96860  0.91121  0.65770  1.0000
  S   S500      1.0  0.89426  0.92539  0.70949  1.0000
  S   S501      1.0  0.92215  0.93395  0.65352  1.0000
  Fe  Fe252     1.0  0.84759  0.82329  0.94076  1.0000
  S   S502      1.0  0.82926  0.83377  0.97759  1.0000
  S   S503      1.0  0.85814  0.79573  0.95045  1.0000
  Fe  Fe253     1.0  0.84384  0.85652  0.90142  1.0000
  S   S504      1.0  0.82487  0.86870  0.93569  1.0000
  S   S505      1.0  0.84710  0.87072  0.85469  1.0000
  Fe  Fe254     1.0  0.84365  0.85917  0.97320  1.0000
  H   H3964     1.0  0.78624  0.71343  0.84236  1.0000
  Fe  Fe255     1.0  0.81229  0.84231  0.93722  1.0000
  S   S506      1.0  0.78361  0.83401  0.93839  1.0000
  S   S507      1.0  0.86323  0.84825  0.93845  1.0000
  S   S508      1.0  0.83007  0.83065  0.90092  1.0000
  C   C2230     1.0  0.76803  0.83783  0.90826  1.0000
  C   C2231     1.0  0.77162  0.84855  0.88254  1.0000
  H   H3965     1.0  0.78431  0.85442  0.88025  1.0000
  H   H3966     1.0  0.91282  0.82320  0.79817  1.0000
  C   C2232     1.0  0.98968  0.91583  0.67271  1.0000
  S   S509      1.0  0.82593  0.68846  0.94210  1.0000
  C   C2233     1.0  0.99203  0.92323  0.70223  1.0000
  H   H3967     1.0  0.90043  0.85538  0.76034  1.0000
  H   H3968     1.0  0.98078  0.92638  0.71658  1.0000
  C   C2234     1.0  0.89560  0.88684  0.79841  1.0000
  C   C2235     1.0  0.89747  0.87977  0.82867  1.0000
  C   C2236     1.0  0.88281  0.87444  0.84608  1.0000
  C   C2237     1.0  0.86611  0.87621  0.83336  1.0000
  C   C2238     1.0  0.86428  0.88303  0.80294  1.0000
  C   C2239     1.0  0.87894  0.88824  0.78546  1.0000
  H   H3969     1.0  0.91033  0.87865  0.83885  1.0000
  H   H3970     1.0  0.88438  0.86940  0.86960  1.0000
  H   H3971     1.0  0.85140  0.88442  0.79288  1.0000
  H   H3972     1.0  0.87735  0.89350  0.76208  1.0000
  C   C2240     1.0  0.87740  0.89514  0.59246  1.0000
  C   C2241     1.0  0.88994  0.89740  0.56889  1.0000
  C   C2242     1.0  0.88656  0.89204  0.53786  1.0000
  C   C2243     1.0  0.87062  0.88435  0.52970  1.0000
  C   C2244     1.0  0.85807  0.88211  0.55324  1.0000
  C   C2245     1.0  0.86145  0.88745  0.58427  1.0000
  H   H3973     1.0  0.90226  0.90327  0.57461  1.0000
  H   H3974     1.0  0.89646  0.89384  0.52006  1.0000
  H   H3975     1.0  0.88759  0.83727  0.85830  1.0000
  H   H3976     1.0  0.85159  0.88568  0.60214  1.0000
  H   H3977     1.0  0.78580  0.75160  0.88960  1.0000
  C   C2246     1.0  0.91490  0.98980  0.73650  1.0000
  C   C2247     1.0  0.90924  0.98576  0.76680  1.0000
  H   H3978     1.0  0.85136  0.81228  0.56153  1.0000
  H   H3979     1.0  0.90435  0.97289  0.77169  1.0000
  C   C2248     1.0  0.84803  0.74346  0.90089  1.0000
  C   C2249     1.0  0.85005  0.74412  0.93337  1.0000
  C   C2250     1.0  0.85283  0.76026  0.94823  1.0000
  C   C2251     1.0  0.85324  0.77595  0.93097  1.0000
  C   C2252     1.0  0.85080  0.77533  0.89859  1.0000
  C   C2253     1.0  0.84834  0.75917  0.88366  1.0000
  H   H3980     1.0  0.84995  0.73215  0.94691  1.0000
  H   H3981     1.0  0.85490  0.76055  0.97324  1.0000
  H   H3982     1.0  0.85123  0.78724  0.88498  1.0000
  H   H3983     1.0  0.84683  0.75879  0.85853  1.0000
  H   H3984     1.0  0.82365  0.82722  0.83188  1.0000
  H   H3985     1.0  0.90993  0.81168  0.90299  1.0000
  H   H3986     1.0  0.85411  0.81620  0.85007  1.0000
  H   H3987     1.0  0.87327  0.00309  0.74115  1.0000
  C   C2254     1.0  0.89575  0.77159  0.80842  1.0000
  H   H3988     1.0  0.84567  0.87639  0.54756  1.0000
  Fe  Fe256     1.0  0.80957  0.67188  0.91038  1.0000
  N   N125      1.0  0.88281  0.82794  0.53524  1.0000
  H   H3989     1.0  0.77036  0.69729  0.83277  1.0000
  C   C2255     1.0  0.86557  0.83548  0.54632  1.0000
  C   C2256     1.0  0.89645  0.84177  0.53979  1.0000
  C   C2257     1.0  0.88786  0.81185  0.55400  1.0000
  C   C2258     1.0  0.88192  0.79392  0.54117  1.0000
  H   H3990     1.0  0.90769  0.81139  0.49994  1.0000
  C   C2259     1.0  0.89852  0.84871  0.57366  1.0000
  H   H3991     1.0  0.88770  0.76838  0.78775  1.0000
  H   H3992     1.0  0.80215  0.80067  0.95777  1.0000
  H   H3993     1.0  0.87204  0.81426  0.49559  1.0000
  C   C2260     1.0  0.91542  0.85883  0.57728  1.0000
  H   H3994     1.0  0.90952  0.83675  0.53244  1.0000
  H   H3995     1.0  0.88084  0.76669  0.55517  1.0000
  H   H3996     1.0  0.86632  0.83960  0.57115  1.0000
  H   H3997     1.0  0.86233  0.84747  0.53260  1.0000
  H   H3998     1.0  0.77382  0.76727  0.97103  1.0000
  H   H3999     1.0  0.75872  0.86959  0.93630  1.0000
  H   H4000     1.0  0.90231  0.81073  0.55632  1.0000
  H   H4001     1.0  0.88294  0.81313  0.57847  1.0000
  H   H4002     1.0  0.76498  0.73707  0.83123  1.0000
  C   C2261     1.0  0.77507  0.77817  0.95383  1.0000
  H   H4003     1.0  0.85886  0.83788  0.83871  1.0000
  C   C2262     1.0  0.80569  0.78650  0.95658  1.0000
  H   H4004     1.0  0.89864  0.83794  0.59109  1.0000
  H   H4005     1.0  0.88761  0.85782  0.57949  1.0000
  H   H4006     1.0  0.88985  0.76562  0.82968  1.0000
  H   H4007     1.0  0.87755  0.84291  0.79607  1.0000
  H   H4008     1.0  0.87063  0.81715  0.89174  1.0000
  H   H4009     1.0  0.89254  0.80984  0.93118  1.0000
  H   H4010     1.0  0.85332  0.98768  0.68572  1.0000
  H   H4011     1.0  0.88135  0.82363  0.77405  1.0000
  H   H4012     1.0  0.84578  0.98874  0.72599  1.0000
  H   H4013     1.0  0.79812  0.80497  0.52106  1.0000
  H   H4014     1.0  0.92694  0.84998  0.57475  1.0000
  H   H4015     1.0  0.91623  0.86942  0.55951  1.0000
  H   H4016     1.0  0.91578  0.86488  0.60085  1.0000
  H   H4017     1.0  0.78702  0.71921  0.89811  1.0000
  H   H4018     1.0  0.82000  0.82880  0.79034  1.0000
  H   H4019     1.0  0.77830  0.71195  0.80292  1.0000
  H   H4020     1.0  0.78728  0.79993  0.90896  1.0000
  H   H4021     1.0  0.77449  0.74442  0.92462  1.0000
  H   H4022     1.0  0.89728  0.83083  0.91424  1.0000
  H   H4023     1.0  0.83057  0.84467  0.53969  1.0000
  C   C2263     1.0  0.84963  0.82336  0.54498  1.0000
  H   H4024     1.0  0.80832  0.72882  0.89728  1.0000
  N   N126      1.0  0.88867  0.93776  0.83349  1.0000
  C   C2264     1.0  0.90773  0.93245  0.83356  1.0000
  C   C2265     1.0  0.87826  0.92543  0.85387  1.0000
  C   C2266     1.0  0.88220  0.93627  0.80023  1.0000
  C   C2267     1.0  0.88597  0.95646  0.84360  1.0000
  C   C2268     1.0  0.89217  0.96109  0.87688  1.0000
  C   C2269     1.0  0.91994  0.94303  0.81176  1.0000
  C   C2270     1.0  0.86212  0.93790  0.79555  1.0000
  C   C2271     1.0  0.88725  0.91782  0.88358  1.0000
  C   C2272     1.0  0.87407  0.90890  0.90511  1.0000
  C   C2273     1.0  0.89080  0.98076  0.88263  1.0000
  C   C2274     1.0  0.93879  0.93643  0.81428  1.0000
  C   C2275     1.0  0.85735  0.93587  0.76110  1.0000
  H   H4025     1.0  0.90906  0.91848  0.82685  1.0000
  H   H4026     1.0  0.91336  0.93309  0.85732  1.0000
  H   H4027     1.0  0.86566  0.93171  0.86100  1.0000
  H   H4028     1.0  0.87463  0.91365  0.84029  1.0000
  H   H4029     1.0  0.88653  0.92358  0.78999  1.0000
  H   H4030     1.0  0.88803  0.94649  0.78504  1.0000
  H   H4031     1.0  0.89221  0.96552  0.82665  1.0000
  H   H4032     1.0  0.87189  0.96005  0.84308  1.0000
  H   H4033     1.0  0.90594  0.95713  0.88080  1.0000
  H   H4034     1.0  0.88369  0.95471  0.89452  1.0000
  H   H4035     1.0  0.91616  0.94167  0.78689  1.0000
  H   H4036     1.0  0.91972  0.95706  0.81806  1.0000
  H   H4037     1.0  0.85713  0.95086  0.80317  1.0000
  H   H4038     1.0  0.85504  0.92768  0.80874  1.0000
  H   H4039     1.0  0.89720  0.90784  0.87665  1.0000
  H   H4040     1.0  0.89395  0.92783  0.89739  1.0000
  H   H4041     1.0  0.86696  0.89862  0.89239  1.0000
  H   H4042     1.0  0.88095  0.90268  0.92518  1.0000
  H   H4043     1.0  0.86447  0.91859  0.91442  1.0000
  H   H4044     1.0  0.89438  0.98359  0.90722  1.0000
  H   H4045     1.0  0.76142  0.86080  0.84075  1.0000
  H   H4046     1.0  0.90449  0.99546  0.81351  1.0000
  H   H4047     1.0  0.93978  0.92249  0.80727  1.0000
  H   H4048     1.0  0.94721  0.94414  0.79830  1.0000
  H   H4049     1.0  0.94366  0.93786  0.83853  1.0000
  H   H4050     1.0  0.86127  0.92270  0.75261  1.0000
  H   H4051     1.0  0.84302  0.93740  0.75824  1.0000
  H   H4052     1.0  0.86386  0.94594  0.74655  1.0000
  N   N127      1.0  0.79253  0.77696  0.93701  1.0000
  H   H4053     1.0  0.89367  0.85328  0.52441  1.0000
  C   C2276     1.0  0.79866  0.75822  0.93410  1.0000
  C   C2277     1.0  0.80831  0.78606  0.88556  1.0000
  H   H4054     1.0  0.83403  0.83760  0.57959  1.0000
  C   C2278     1.0  0.79589  0.72810  0.91061  1.0000
  C   C2279     1.0  0.80511  0.79488  0.85392  1.0000
  H   H4055     1.0  0.88957  0.79032  0.52001  1.0000
  C   C2280     1.0  0.83299  0.83313  0.55499  1.0000
  H   H4056     1.0  0.81886  0.78589  0.94574  1.0000
  H   H4057     1.0  0.81240  0.75755  0.92556  1.0000
  H   H4058     1.0  0.82166  0.82433  0.55322  1.0000
  H   H4059     1.0  0.81872  0.79343  0.89722  1.0000
  H   H4060     1.0  0.81300  0.77255  0.88093  1.0000
  H   H4061     1.0  0.90693  0.67321  0.69808  1.0000
  C   C2281     1.0  0.82938  0.83156  0.80934  1.0000
  C   C2282     1.0  0.85747  0.98804  0.71057  1.0000
  H   H4062     1.0  0.84754  0.81827  0.52109  1.0000
  C   C2283     1.0  0.89670  0.81661  0.90942  1.0000
  H   H4063     1.0  0.81747  0.79496  0.84025  1.0000
  H   H4064     1.0  0.75712  0.72270  0.86139  1.0000
  H   H4065     1.0  0.87182  0.79754  0.79392  1.0000
  C   C2284     1.0  0.75833  0.77859  0.93345  1.0000
  H   H4066     1.0  0.90719  0.84413  0.81433  1.0000
  H   H4067     1.0  0.84392  0.80806  0.79928  1.0000
  H   H4068     1.0  0.90349  0.79651  0.79079  1.0000
  H   H4069     1.0  0.90553  0.79367  0.83270  1.0000
  C   C2285     1.0  0.78745  0.74624  0.91356  1.0000
  H   H4070     1.0  0.87151  0.79227  0.83409  1.0000
  H   H4071     1.0  0.90898  0.76576  0.80505  1.0000
  H   H4072     1.0  0.89651  0.93071  0.50081  1.0000
  H   H4073     1.0  0.83720  0.67447  0.60497  1.0000
  H   H4074     1.0  0.79522  0.78769  0.84038  1.0000
  H   H4075     1.0  0.90285  0.82055  0.84917  1.0000
  H   H4076     1.0  0.85193  0.82748  0.78071  1.0000
  C   C2286     1.0  0.79145  0.78605  0.90562  1.0000
  H   H4077     1.0  0.83132  0.84589  0.81018  1.0000
  C   C2287     1.0  0.88475  0.77937  0.56529  1.0000
  H   H4078     1.0  0.78134  0.78020  0.89069  1.0000
  H   H4079     1.0  0.79856  0.72231  0.93403  1.0000
  H   H4080     1.0  0.88377  0.79869  0.87949  1.0000
  C   C2288     1.0  0.77455  0.71083  0.82797  1.0000
  H   H4081     1.0  0.87659  0.91914  0.49420  1.0000
  H   H4082     1.0  0.90730  0.83449  0.74454  1.0000
  N   N128      1.0  0.87834  0.81906  0.82404  1.0000
  C   C2289     1.0  0.88873  0.82307  0.85300  1.0000
  C   C2290     1.0  0.88458  0.83002  0.79659  1.0000
  C   C2291     1.0  0.85957  0.82413  0.83062  1.0000
  C   C2292     1.0  0.87883  0.79988  0.81620  1.0000
  C   C2293     1.0  0.89711  0.79137  0.81219  1.0000
  C   C2294     1.0  0.88373  0.81300  0.88325  1.0000
  C   C2295     1.0  0.84671  0.82210  0.80290  1.0000
  C   C2296     1.0  0.90419  0.83479  0.79535  1.0000
  C   C2297     1.0  0.90885  0.84366  0.76435  1.0000
  H   H4083     1.0  0.87669  0.78186  0.58652  1.0000
  H   H4084     1.0  0.89872  0.77839  0.57196  1.0000
  H   H4085     1.0  0.87727  0.98564  0.87862  1.0000
  H   H4086     1.0  0.86476  0.97572  0.71582  1.0000
  H   H4087     1.0  0.80053  0.80859  0.85725  1.0000
  C   C2298     1.0  0.88168  0.82448  0.50059  1.0000
  H   H4088     1.0  0.89989  0.98789  0.86703  1.0000
  C   C2299     1.0  0.80157  0.80676  0.49601  1.0000
  H   H4089     1.0  0.75811  0.76776  0.91645  1.0000
  H   H4090     1.0  0.86801  0.79395  0.53447  1.0000
  C   C2300     1.0  0.80822  0.77946  0.99050  1.0000
  H   H4091     1.0  0.77418  0.79040  0.96791  1.0000
  C   C2301     1.0  0.75857  0.85216  0.86017  1.0000
  C   C2302     1.0  0.90921  0.99863  0.79038  1.0000
  H   H4092     1.0  0.81570  0.76692  0.99003  1.0000
  S   S510      1.0  0.82372  0.68018  0.86714  1.0000
  C   C2303     1.0  0.75989  0.72381  0.83603  1.0000
  S   S511      1.0  0.77970  0.67434  0.91306  1.0000
  H   H4093     1.0  0.75751  0.79108  0.92014  1.0000
  H   H4094     1.0  0.00287  0.90603  0.63160  1.0000
  H   H4095     1.0  0.88107  0.00151  0.70139  1.0000
  S   S512      1.0  0.86058  0.67340  0.90441  1.0000
  C   C2304     1.0  0.86931  0.00356  0.71623  1.0000
  H   H4096     1.0  0.81601  0.80610  0.49371  1.0000
