data_image0
_chemical_formula_structural       Fe2S2FeSCSH2CH2CH2CH3C2HSH3C2HC7H4SH9C2NC6H15C2H2C2H3CH10C3HCSH7C2H2NHCH2NHC2HC2HC2H3FeH6CH3C2H3C2HSHC3H3CFeCFeS2FeS2FeSHS2HSH3FeHFeSH3C6H5CH4C5FeH4SHC2H3C2H8C4H4C2H3SNH2C3H2C3H4C3H2NC7H3C2H3CH3FeCHCH6CH2CH5SHCH3CFeSCFeS2FeSFeS4FeSC6H4CSH4C3SH15CH4C2H3CHCFeHCH2CHCHCH2CHC2H3CH4CH2C5H6SH2CH6NC4H2C2HCHCH2SH2CH4C3HFeCH3CHCNH6CH5CH2CHCHSC2HC2HFeS2FeS2FeSFeHS3C6H4C2H2C2H4CH7FeCHNC5HNCH8CHCH7CH2CHCH6CH4C2H8SC2HCH2CSHC2H2C3SH2CHCH3CHCH2CHCHCNH2CH3CH3CH2CHCHC2HCHC2HCNHCH2CH3C3FeCSHC4SFeS2FeSFeSFeS3C6H11C4H6CHCHCH2C7HCHNH7CH5CNHCH2CHCHCH2SHC2H8CH3CHCH5CH5CH4NHCH2C2H3CHCH5NH2CHC2HFe2S2FeS3CH2CSC2H2C2HC2HCH3C6H11CH2C2HNCH4C2H10FeCH6CHCHCH3CH3CSCH3CHNHCHCHC2H4CH2C3H5CH3C2H6CH6SCHCSHCHSHSFeS2FeSFeS3CHSFeSH2C6H4C6H4CHCH9FeH2C2H3C2HSHCH2C2HCH3C2HCH2C3H2SHC3HCH5CHCH2C2H4CH5C2HCH8FeHNCHNCHCH4CH4CHCHNCH3CHFeS2FeSCFeSFeS3CSH4C2HNCH2C2H3CHCH3C5H3CH2CH6C4HC2H3NSCH3CH11CH2C2H2CHC2H7CH2CH2CH2CHC2HC2HCH2CH4CH2CH4FeS2FeS2FeHFeS4HC3HC8H4SHCH2CHSC2H5C3H2FeH6NH10CHCH2CH6CH2CHCNHCH2C2H2C3H4C2H3CHCHCH4CSHC2H5CHCH2FeS2FeCHFeSFeS4FeSHCH2C6H10NC7H2CH7CH4C3FeC2H2CHNC3H2SH5SH3C2HCSH10SH5CHCH3CHCHFeCH3CH3CFeS2FeS2FeSFeS3C2HC2H2C6H2CHC3H4C2HCH3CHNHC2H5C3HNH8CH11CHCHC2H3CH6C3H2SC2H4CHC3H4CH2CH2CHC2HCH3C2H2CNH4CH3C2H2C2H6CHC2H2SHCSFeS2FeSFeSFeS3FeHSH3CHC7H4C6H3C5H2CHC2H4SHC4H2CH6C2H7CHNH6CH3CH4C2NH2CH3NC10HCH5CH18C2H5CH2CH3CH6
_chemical_formula_sum              "Fe64 S128 C576 H1024 N32"
_cell_length_a       40.5782
_cell_length_b       40.222
_cell_length_c       36.4311
_cell_angle_alpha    90.0646
_cell_angle_beta     90.2402
_cell_angle_gamma    90.0579

_space_group_name_H-M_alt    "P 1"
_space_group_IT_number       1

loop_
  _space_group_symop_operation_xyz
  'x, y, z'

loop_
  _atom_site_type_symbol
  _atom_site_label
  _atom_site_symmetry_multiplicity
  _atom_site_fract_x
  _atom_site_fract_y
  _atom_site_fract_z
  _atom_site_occupancy
  Fe  Fe1       1.0  0.45703  0.12262  0.37316  1.0000
  Fe  Fe2       1.0  0.43595  0.09656  0.29644  1.0000
  S   S1        1.0  0.43756  0.14786  0.27153  1.0000
  S   S2        1.0  0.43846  0.04830  0.26373  1.0000
  Fe  Fe3       1.0  0.41262  0.16600  0.32371  1.0000
  S   S3        1.0  0.36640  0.19784  0.33610  1.0000
  C   C1        1.0  0.36322  0.16043  0.43447  1.0000
  S   S4        1.0  0.40790  0.11364  0.34619  1.0000
  H   H1        1.0  0.46368  0.17860  0.43933  1.0000
  H   H2        1.0  0.07419  0.22549  0.00958  1.0000
  C   C2        1.0  0.29056  0.00731  0.12267  1.0000
  H   H3        1.0  0.09989  0.19123  0.02460  1.0000
  H   H4        1.0  0.39322  0.11165  0.16474  1.0000
  C   C3        1.0  0.42871  0.99322  0.38578  1.0000
  H   H5        1.0  0.41419  0.16453  0.42150  1.0000
  H   H6        1.0  0.34668  0.15814  0.45854  1.0000
  C   C4        1.0  0.40688  0.02274  0.24567  1.0000
  H   H7        1.0  0.37347  0.04831  0.34349  1.0000
  H   H8        1.0  0.44502  0.25612  0.48352  1.0000
  H   H9        1.0  0.00092  0.21830  0.19895  1.0000
  C   C5        1.0  0.40388  0.08676  0.17049  1.0000
  C   C6        1.0  0.37342  0.02968  0.25062  1.0000
  H   H10       1.0  0.32443  0.05824  0.09517  1.0000
  S   S5        1.0  0.46079  0.17530  0.35351  1.0000
  H   H11       1.0  0.27503  0.26383  0.18277  1.0000
  H   H12       1.0  0.36612  0.05143  0.26605  1.0000
  H   H13       1.0  0.37170  0.09088  0.10391  1.0000
  C   C7        1.0  0.16226  0.22271  0.16770  1.0000
  C   C8        1.0  0.32767  0.00741  0.11568  1.0000
  H   H14       1.0  0.17028  0.19635  0.16931  1.0000
  C   C9        1.0  0.46157  0.20358  0.45220  1.0000
  C   C10       1.0  0.32235  0.22623  0.21020  1.0000
  C   C11       1.0  0.01764  0.30884  0.02021  1.0000
  C   C12       1.0  0.35714  0.25607  0.29470  1.0000
  C   C13       1.0  0.34603  0.23569  0.32323  1.0000
  C   C14       1.0  0.31728  0.24527  0.34214  1.0000
  C   C15       1.0  0.29979  0.27450  0.33263  1.0000
  H   H15       1.0  0.37916  0.24927  0.27985  1.0000
  H   H16       1.0  0.30837  0.22986  0.36431  1.0000
  H   H17       1.0  0.27774  0.28125  0.34742  1.0000
  H   H18       1.0  0.16863  0.26888  0.19580  1.0000
  S   S6        1.0  0.46494  0.10472  0.43179  1.0000
  H   H19       1.0  0.27676  0.00339  0.09662  1.0000
  H   H20       1.0  0.22355  0.24479  0.16797  1.0000
  H   H21       1.0  0.01636  0.16144  0.18198  1.0000
  H   H22       1.0  0.25508  0.31242  0.16531  1.0000
  H   H23       1.0  0.32528  0.02632  0.06155  1.0000
  H   H24       1.0  0.16908  0.23310  0.14051  1.0000
  H   H25       1.0  0.43057  0.08694  0.16375  1.0000
  H   H26       1.0  0.40545  0.14158  0.46293  1.0000
  H   H27       1.0  0.34039  0.01058  0.14233  1.0000
  C   C16       1.0  0.06330  0.29836  0.20894  1.0000
  C   C17       1.0  0.40408  0.19617  0.46985  1.0000
  N   N1        1.0  0.23449  0.26564  0.22147  1.0000
  C   C18       1.0  0.22963  0.25734  0.26162  1.0000
  C   C19       1.0  0.21592  0.24165  0.19708  1.0000
  C   C20       1.0  0.17787  0.24315  0.19863  1.0000
  C   C21       1.0  0.28778  0.22968  0.22630  1.0000
  C   C22       1.0  0.19986  0.27337  0.28154  1.0000
  C   C23       1.0  0.19537  0.25877  0.31990  1.0000
  H   H28       1.0  0.36542  0.01980  0.38051  1.0000
  H   H29       1.0  0.34818  0.30031  0.26250  1.0000
  H   H30       1.0  0.22844  0.22990  0.26553  1.0000
  H   H31       1.0  0.25132  0.26580  0.27791  1.0000
  H   H32       1.0  0.22251  0.21558  0.20390  1.0000
  H   H33       1.0  0.44252  0.02960  0.09480  1.0000
  H   H34       1.0  0.16909  0.23235  0.22482  1.0000
  H   H35       1.0  0.27367  0.20722  0.21836  1.0000
  H   H36       1.0  0.29038  0.22978  0.25667  1.0000
  H   H37       1.0  0.06569  0.28866  0.00842  1.0000
  H   H38       1.0  0.17650  0.27003  0.26643  1.0000
  H   H39       1.0  0.21790  0.26278  0.33678  1.0000
  H   H40       1.0  0.17439  0.27128  0.33370  1.0000
  H   H41       1.0  0.18999  0.23173  0.31825  1.0000
  H   H42       1.0  0.43438  0.01831  0.04755  1.0000
  C   C24       1.0  0.33946  0.28512  0.28494  1.0000
  C   C25       1.0  0.38108  0.02441  0.35611  1.0000
  H   H43       1.0  0.33490  0.20440  0.22261  1.0000
  H   H44       1.0  0.36015  0.05907  0.15864  1.0000
  C   C26       1.0  0.27081  0.26219  0.21287  1.0000
  C   C27       1.0  0.37802  0.05347  0.04246  1.0000
  H   H45       1.0  0.01801  0.30114  0.04865  1.0000
  H   H46       1.0  0.45146  0.22034  0.43051  1.0000
  H   H47       1.0  0.00807  0.20291  0.13206  1.0000
  C   C28       1.0  0.39910  0.16404  0.44679  1.0000
  H   H48       1.0  0.06413  0.17846  0.30412  1.0000
  H   H49       1.0  0.03048  0.19403  0.24905  1.0000
  H   H50       1.0  0.32895  0.07199  0.02597  1.0000
  H   H51       1.0  0.47217  0.00353  0.16204  1.0000
  H   H52       1.0  0.00106  0.25790  0.24040  1.0000
  H   H53       1.0  0.01570  0.23926  0.28195  1.0000
  H   H54       1.0  0.01636  0.15296  0.24196  1.0000
  H   H55       1.0  0.32350  0.01365  0.23952  1.0000
  H   H56       1.0  0.40357  0.06286  0.03842  1.0000
  H   H57       1.0  0.41185  0.07504  0.09946  1.0000
  C   C29       1.0  0.99336  0.24821  0.26746  1.0000
  C   C30       1.0  0.01150  0.16882  0.29777  1.0000
  C   C31       1.0  0.31056  0.29452  0.30361  1.0000
  H   H58       1.0  0.48638  0.01320  0.32231  1.0000
  C   C32       1.0  0.35443  0.08161  0.02953  1.0000
  S   S7        1.0  0.04347  0.27342  0.17543  1.0000
  H   H59       1.0  0.35369  0.10253  0.04929  1.0000
  H   H60       1.0  0.23981  0.31816  0.23211  1.0000
  H   H61       1.0  0.11143  0.27987  0.19576  1.0000
  H   H62       1.0  0.39815  0.03580  0.15498  1.0000
  H   H63       1.0  0.41636  0.99357  0.41309  1.0000
  H   H64       1.0  0.99845  0.16106  0.11774  1.0000
  H   H65       1.0  0.28501  0.28323  0.22515  1.0000
  C   C33       1.0  0.38592  0.05973  0.14860  1.0000
  C   C34       1.0  0.41749  0.02600  0.36707  1.0000
  H   H66       1.0  0.28280  0.03112  0.13543  1.0000
  H   H67       1.0  0.33738  0.24869  0.21618  1.0000
  N   N2        1.0  0.43840  0.20253  0.48461  1.0000
  H   H68       1.0  0.13497  0.22353  0.17012  1.0000
  C   C35       1.0  0.04617  0.15813  0.30928  1.0000
  H   H69       1.0  0.32100  0.22257  0.18001  1.0000
  H   H70       1.0  0.42079  0.04708  0.38653  1.0000
  N   N3        1.0  0.37353  0.04112  0.08138  1.0000
  H   H71       1.0  0.05776  0.18393  0.01078  1.0000
  C   C36       1.0  0.01005  0.17663  0.25608  1.0000
  C   C37       1.0  0.09757  0.29595  0.21370  1.0000
  H   H72       1.0  0.01895  0.32173  0.22829  1.0000
  C   C38       1.0  0.38632  0.06772  0.10704  1.0000
  C   C39       1.0  0.33719  0.03473  0.08751  1.0000
  H   H73       1.0  0.37694  0.00444  0.33547  1.0000
  C   C40       1.0  0.41603  0.99445  0.22556  1.0000
  C   C41       1.0  0.99074  0.18178  0.13592  1.0000
  H   H74       1.0  0.36051  0.13776  0.41727  1.0000
  H   H75       1.0  0.40140  0.08187  0.20032  1.0000
  H   H76       1.0  0.20414  0.30050  0.28480  1.0000
  Fe  Fe4       1.0  0.99186  0.28816  0.15754  1.0000
  H   H77       1.0  0.21371  0.29851  0.15498  1.0000
  H   H78       1.0  0.37490  0.03258  0.02258  1.0000
  H   H79       1.0  0.39043  0.99848  0.11300  1.0000
  H   H80       1.0  0.39633  0.21743  0.45216  1.0000
  H   H81       1.0  0.00480  0.19068  0.31470  1.0000
  H   H82       1.0  0.35556  0.18219  0.41769  1.0000
  C   C42       1.0  0.48365  0.01957  0.39689  1.0000
  H   H83       1.0  0.04653  0.15232  0.33908  1.0000
  H   H84       1.0  0.05384  0.13555  0.29394  1.0000
  H   H85       1.0  0.45016  0.15104  0.49505  1.0000
  C   C43       1.0  0.43009  0.01133  0.07659  1.0000
  C   C44       1.0  0.39274  0.00918  0.08508  1.0000
  H   H86       1.0  0.47782  0.03856  0.37584  1.0000
  H   H87       1.0  0.43169  0.03171  0.34207  1.0000
  H   H88       1.0  0.38579  0.19498  0.49232  1.0000
  C   C45       1.0  0.22500  0.30135  0.21416  1.0000
  C   C46       1.0  0.11382  0.31419  0.24145  1.0000
  H   H89       1.0  0.47531  0.03088  0.42323  1.0000
  S   S8        1.0  0.48449  0.10133  0.32582  1.0000
  H   H90       1.0  0.19907  0.30634  0.22180  1.0000
  C   C47       1.0  0.34935  0.00828  0.23553  1.0000
  C   C48       1.0  0.99103  0.17028  0.17586  1.0000
  C   C49       1.0  0.04535  0.31950  0.23185  1.0000
  H   H91       1.0  0.99439  0.14820  0.30457  1.0000
  H   H92       1.0  0.14017  0.31234  0.24487  1.0000
  H   H93       1.0  0.99912  0.29692  0.29240  1.0000
  C   C50       1.0  0.22896  0.31361  0.17408  1.0000
  Fe  Fe5       1.0  0.48503  0.15289  0.30347  1.0000
  C   C51       1.0  0.08021  0.19884  0.00507  1.0000
  Fe  Fe6       1.0  0.31866  0.05523  0.87529  1.0000
  S   S9        1.0  0.27978  0.04111  0.83421  1.0000
  S   S10       1.0  0.30627  0.04596  0.93546  1.0000
  Fe  Fe7       1.0  0.36545  0.07821  0.81429  1.0000
  S   S11       1.0  0.32958  0.06522  0.76908  1.0000
  S   S12       1.0  0.41960  0.09210  0.80824  1.0000
  Fe  Fe8       1.0  0.29141  0.08961  0.80611  1.0000
  S   S13       1.0  0.24661  0.11898  0.78445  1.0000
  H   H94       1.0  0.36927  0.01286  0.92587  1.0000
  S   S14       1.0  0.32815  0.10530  0.84943  1.0000
  S   S15       1.0  0.35878  0.02976  0.84432  1.0000
  H   H95       1.0  0.13796  0.13810  0.90859  1.0000
  S   S16       1.0  0.08613  0.27064  0.83264  1.0000
  H   H96       1.0  0.27710  0.25186  0.77688  1.0000
  H   H97       1.0  0.27053  0.28726  0.72170  1.0000
  H   H98       1.0  0.48132  0.09424  0.50749  1.0000
  Fe  Fe9       1.0  0.06285  0.30666  0.79266  1.0000
  H   H99       1.0  0.39825  0.07368  0.68120  1.0000
  Fe  Fe10      1.0  0.13498  0.28937  0.81218  1.0000
  S   S17       1.0  0.18602  0.26419  0.81259  1.0000
  H   H100      1.0  0.43378  0.19221  0.56399  1.0000
  H   H101      1.0  0.40351  0.16676  0.54025  1.0000
  H   H102      1.0  0.39149  0.07944  0.59727  1.0000
  C   C52       1.0  0.22940  0.15885  0.79465  1.0000
  C   C53       1.0  0.24543  0.18218  0.81704  1.0000
  C   C54       1.0  0.23145  0.21397  0.82272  1.0000
  C   C55       1.0  0.20110  0.22283  0.80655  1.0000
  C   C56       1.0  0.18479  0.19934  0.78470  1.0000
  C   C57       1.0  0.19889  0.16767  0.77878  1.0000
  H   H103      1.0  0.26894  0.17595  0.82934  1.0000
  H   H104      1.0  0.24448  0.23193  0.83948  1.0000
  H   H105      1.0  0.16171  0.20580  0.77159  1.0000
  H   H106      1.0  0.18627  0.14995  0.76130  1.0000
  H   H107      1.0  0.14010  0.21133  0.97867  1.0000
  C   C58       1.0  0.44977  0.17511  0.50987  1.0000
  H   H108      1.0  0.31506  0.25567  0.75187  1.0000
  H   H109      1.0  0.13414  0.21539  0.83862  1.0000
  H   H110      1.0  0.39790  0.01802  0.70609  1.0000
  H   H111      1.0  0.10871  0.17413  0.79841  1.0000
  C   C59       1.0  0.18604  0.12448  0.92718  1.0000
  C   C60       1.0  0.43764  0.13395  0.70827  1.0000
  C   C61       1.0  0.42105  0.12063  0.73884  1.0000
  C   C62       1.0  0.43904  0.10832  0.76868  1.0000
  C   C63       1.0  0.04474  0.31166  0.96028  1.0000
  Fe  Fe11      1.0  0.32073  0.01831  0.80144  1.0000
  H   H112      1.0  0.42355  0.14376  0.68547  1.0000
  H   H113      1.0  0.39440  0.12036  0.73959  1.0000
  H   H114      1.0  0.18157  0.18466  0.89714  1.0000
  H   H115      1.0  0.07010  0.20031  0.94743  1.0000
  S   S18       1.0  0.01536  0.29019  0.76486  1.0000
  H   H116      1.0  0.17855  0.09843  0.93287  1.0000
  C   C64       1.0  0.47398  0.04174  0.67781  1.0000
  C   C65       1.0  0.35697  0.00190  0.94921  1.0000
  H   H117      1.0  0.43367  0.03636  0.61891  1.0000
  H   H118      1.0  0.42799  0.04479  0.72522  1.0000
  H   H119      1.0  0.09575  0.16621  0.96178  1.0000
  C   C66       1.0  0.38203  0.08099  0.62579  1.0000
  C   C67       1.0  0.40876  0.07101  0.65330  1.0000
  H   H120      1.0  0.46479  0.99586  0.60469  1.0000
  H   H121      1.0  0.09084  0.15273  0.83692  1.0000
  H   H122      1.0  0.42526  0.29903  0.53082  1.0000
  H   H123      1.0  0.39920  0.01886  0.64183  1.0000
  H   H124      1.0  0.20494  0.13195  0.94776  1.0000
  H   H125      1.0  0.43795  0.11688  0.55111  1.0000
  H   H126      1.0  0.20751  0.30218  0.93926  1.0000
  H   H127      1.0  0.18277  0.19083  0.94502  1.0000
  C   C68       1.0  0.44242  0.14000  0.56706  1.0000
  C   C69       1.0  0.40832  0.24785  0.52401  1.0000
  C   C70       1.0  0.15595  0.14728  0.92920  1.0000
  C   C71       1.0  0.17128  0.28373  0.70386  1.0000
  H   H128      1.0  0.46746  0.06732  0.68668  1.0000
  H   H129      1.0  0.20152  0.24223  0.93328  1.0000
  H   H130      1.0  0.15791  0.27533  0.72874  1.0000
  H   H131      1.0  0.16926  0.25867  0.96185  1.0000
  C   C72       1.0  0.36525  0.09564  0.99248  1.0000
  C   C73       1.0  0.47366  0.10929  0.76753  1.0000
  H   H132      1.0  0.07736  0.19435  0.82524  1.0000
  H   H133      1.0  0.30950  0.27898  0.79372  1.0000
  H   H134      1.0  0.36729  0.07550  0.97171  1.0000
  S   S19       1.0  0.07964  0.30217  0.93289  1.0000
  N   N4        1.0  0.44358  0.02040  0.67491  1.0000
  H   H135      1.0  0.37431  0.10703  0.63122  1.0000
  H   H136      1.0  0.47571  0.17936  0.51865  1.0000
  C   C74       1.0  0.32607  0.01365  0.95984  1.0000
  C   C75       1.0  0.16585  0.18386  0.92217  1.0000
  C   C76       1.0  0.42120  0.03514  0.64591  1.0000
  H   H137      1.0  0.39773  0.22844  0.54193  1.0000
  H   H138      1.0  0.11306  0.24063  0.95833  1.0000
  C   C77       1.0  0.99355  0.31334  0.73136  1.0000
  C   C78       1.0  0.28234  0.29812  0.74634  1.0000
  C   C79       1.0  0.41545  0.27836  0.54780  1.0000
  H   H139      1.0  0.21897  0.30157  0.68841  1.0000
  H   H140      1.0  0.14667  0.17408  0.85144  1.0000
  H   H141      1.0  0.42935  0.08895  0.65018  1.0000
  H   H142      1.0  0.14541  0.14474  0.95707  1.0000
  C   C80       1.0  0.42494  0.02040  0.71096  1.0000
  C   C81       1.0  0.29686  0.26948  0.76870  1.0000
  C   C82       1.0  0.47227  0.13440  0.70687  1.0000
  H   H143      1.0  0.16580  0.30895  0.92408  1.0000
  H   H144      1.0  0.36010  0.06463  0.62860  1.0000
  N   N5        1.0  0.13808  0.20864  0.91908  1.0000
  C   C83       1.0  0.11276  0.19837  0.89073  1.0000
  C   C84       1.0  0.12186  0.21440  0.95601  1.0000
  C   C85       1.0  0.15269  0.24135  0.90684  1.0000
  C   C86       1.0  0.41699  0.99914  0.77605  1.0000
  C   C87       1.0  0.31073  0.99966  0.99074  1.0000
  C   C88       1.0  0.12584  0.19189  0.85140  1.0000
  C   C89       1.0  0.17849  0.25712  0.93331  1.0000
  H   H145      1.0  0.39235  0.28686  0.56109  1.0000
  H   H146      1.0  0.24288  0.30180  0.78640  1.0000
  H   H147      1.0  0.19713  0.12534  0.89932  1.0000
  C   C90       1.0  0.09893  0.17739  0.82662  1.0000
  C   C91       1.0  0.43332  0.99263  0.73909  1.0000
  H   H148      1.0  0.09318  0.21774  0.88879  1.0000
  H   H149      1.0  0.09971  0.17540  0.89908  1.0000
  H   H150      1.0  0.17341  0.26217  0.68495  1.0000
  C   C92       1.0  0.18752  0.29234  0.92139  1.0000
  H   H151      1.0  0.13272  0.25988  0.90191  1.0000
  H   H152      1.0  0.16558  0.23847  0.88026  1.0000
  H   H153      1.0  0.19623  0.29252  0.89250  1.0000
  Fe  Fe12      1.0  0.08592  0.31358  0.87198  1.0000
  C   C93       1.0  0.09111  0.19310  0.96544  1.0000
  H   H154      1.0  0.46082  0.23651  0.52363  1.0000
  C   C94       1.0  0.20566  0.29623  0.71424  1.0000
  H   H155      1.0  0.43359  0.27217  0.56970  1.0000
  H   H156      1.0  0.25163  0.00235  0.89378  1.0000
  H   H157      1.0  0.21796  0.27556  0.72909  1.0000
  H   H158      1.0  0.48550  0.04508  0.65036  1.0000
  H   H159      1.0  0.34675  0.11386  0.98245  1.0000
  H   H160      1.0  0.46920  0.14226  0.57324  1.0000
  C   C95       1.0  0.43015  0.17037  0.54578  1.0000
  H   H161      1.0  0.42912  0.13812  0.59358  1.0000
  H   H162      1.0  0.28690  0.00880  0.99927  1.0000
  C   C96       1.0  0.04465  0.30175  0.99730  1.0000
  H   H163      1.0  0.38987  0.00144  0.77280  1.0000
  H   H164      1.0  0.42687  0.02228  0.78857  1.0000
  H   H165      1.0  0.38944  0.10840  0.99506  1.0000
  H   H166      1.0  0.30312  0.31378  0.73680  1.0000
  H   H167      1.0  0.15685  0.30352  0.68991  1.0000
  S   S20       1.0  0.11177  0.32202  0.76837  1.0000
  H   H168      1.0  0.19040  0.31875  0.76399  1.0000
  C   C97       1.0  0.25816  0.31918  0.76981  1.0000
  H   H169      1.0  0.48775  0.10014  0.79068  1.0000
  H   H170      1.0  0.98854  0.32511  0.83267  1.0000
  H   H171      1.0  0.38910  0.25494  0.50364  1.0000
  C   C98       1.0  0.43985  0.23597  0.50374  1.0000
  Fe  Fe13      1.0  0.24320  0.36076  0.30751  1.0000
  S   S21       1.0  0.20485  0.34584  0.34900  1.0000
  C   C99       1.0  0.01798  0.50623  0.13279  1.0000
  Fe  Fe14      1.0  0.21181  0.43045  0.29673  1.0000
  S   S22       1.0  0.17227  0.41966  0.33776  1.0000
  S   S23       1.0  0.21338  0.48449  0.27784  1.0000
  Fe  Fe15      1.0  0.21175  0.39730  0.37253  1.0000
  S   S24       1.0  0.21591  0.40497  0.43426  1.0000
  Fe  Fe16      1.0  0.16820  0.36973  0.31034  1.0000
  S   S25       1.0  0.11429  0.35548  0.30265  1.0000
  S   S26       1.0  0.25220  0.41094  0.33353  1.0000
  S   S27       1.0  0.20570  0.38172  0.26688  1.0000
  S   S28       1.0  0.07237  0.60701  0.10504  1.0000
  Fe  Fe17      1.0  0.12178  0.60143  0.13292  1.0000
  S   S29       1.0  0.13827  0.54755  0.14039  1.0000
  C   C100      1.0  0.19358  0.50181  0.23881  1.0000
  C   C101      1.0  0.18583  0.53589  0.23867  1.0000
  C   C102      1.0  0.16947  0.55050  0.20850  1.0000
  C   C103      1.0  0.16089  0.53111  0.17801  1.0000
  C   C104      1.0  0.16956  0.49725  0.17770  1.0000
  C   C105      1.0  0.18580  0.48263  0.20794  1.0000
  H   H172      1.0  0.19221  0.55105  0.26221  1.0000
  H   H173      1.0  0.16321  0.57664  0.20898  1.0000
  H   H174      1.0  0.16335  0.48214  0.15407  1.0000
  H   H175      1.0  0.19228  0.45656  0.20740  1.0000
  C   C106      1.0  0.34545  0.47014  0.42557  1.0000
  S   S30       1.0  0.08819  0.65453  0.00925  1.0000
  H   H176      1.0  0.13987  0.47608  0.28666  1.0000
  H   H177      1.0  0.06626  0.53699  0.39075  1.0000
  H   H178      1.0  0.16779  0.62928  0.47260  1.0000
  H   H179      1.0  0.10628  0.54935  0.43987  1.0000
  C   C107      1.0  0.20137  0.50372  0.45405  1.0000
  C   C108      1.0  0.20285  0.47269  0.43616  1.0000
  C   C109      1.0  0.21081  0.44403  0.45601  1.0000
  S   S31       1.0  0.11123  0.63970  0.17660  1.0000
  H   H180      1.0  0.19593  0.52587  0.43834  1.0000
  H   H181      1.0  0.19843  0.47099  0.40692  1.0000
  H   H182      1.0  0.03771  0.52006  0.29985  1.0000
  H   H183      1.0  0.36444  0.62858  0.13725  1.0000
  H   H184      1.0  0.05000  0.49010  0.33436  1.0000
  H   H185      1.0  0.03982  0.46968  0.25381  1.0000
  H   H186      1.0  0.03088  0.49815  0.15803  1.0000
  H   H187      1.0  0.31440  0.34616  0.41653  1.0000
  H   H188      1.0  0.07968  0.54082  0.03618  1.0000
  H   H189      1.0  0.10895  0.45801  0.31473  1.0000
  H   H190      1.0  0.35222  0.45480  0.40130  1.0000
  H   H191      1.0  0.34055  0.40147  0.41276  1.0000
  H   H192      1.0  0.13453  0.46210  0.47132  1.0000
  H   H193      1.0  0.29840  0.40184  0.39676  1.0000
  H   H194      1.0  0.04252  0.63527  0.23306  1.0000
  C   C110      1.0  0.11893  0.51070  0.32385  1.0000
  H   H195      1.0  0.29907  0.45429  0.37946  1.0000
  H   H196      1.0  0.04261  0.38537  0.18492  1.0000
  H   H197      1.0  0.08218  0.53677  0.27395  1.0000
  H   H198      1.0  0.13153  0.53125  0.30907  1.0000
  C   C111      1.0  0.28874  0.46771  0.40353  1.0000
  C   C112      1.0  0.02361  0.40202  0.19681  1.0000
  H   H199      1.0  0.22053  0.35791  0.14132  1.0000
  H   H200      1.0  0.08191  0.46026  0.21349  1.0000
  H   H201      1.0  0.14265  0.52419  0.37534  1.0000
  C   C113      1.0  0.00217  0.48237  0.31091  1.0000
  H   H202      1.0  0.27209  0.49033  0.46495  1.0000
  C   C114      1.0  0.07773  0.55746  0.01197  1.0000
  Fe  Fe18      1.0  0.06335  0.64752  0.14620  1.0000
  H   H203      1.0  0.02064  0.61109  0.29081  1.0000
  C   C115      1.0  0.06808  0.56237  0.20860  1.0000
  H   H204      1.0  0.31009  0.51194  0.46197  1.0000
  H   H205      1.0  0.16541  0.49477  0.34823  1.0000
  C   C116      1.0  0.06143  0.33701  0.26021  1.0000
  H   H206      1.0  0.41109  0.44930  0.41789  1.0000
  C   C117      1.0  0.05737  0.54580  0.41783  1.0000
  H   H207      1.0  0.40985  0.49382  0.42555  1.0000
  C   C118      1.0  0.29926  0.48683  0.46658  1.0000
  H   H208      1.0  0.05761  0.44643  0.28972  1.0000
  H   H209      1.0  0.03420  0.41469  0.22119  1.0000
  C   C119      1.0  0.08276  0.53741  0.44752  1.0000
  H   H210      1.0  0.04206  0.51803  0.22331  1.0000
  C   C120      1.0  0.03811  0.49334  0.30713  1.0000
  C   C121      1.0  0.01660  0.62930  0.23531  1.0000
  H   H211      1.0  0.30654  0.51695  0.38492  1.0000
  H   H212      1.0  0.12309  0.47239  0.22227  1.0000
  H   H213      1.0  0.12967  0.42356  0.26583  1.0000
  C   C122      1.0  0.04287  0.50685  0.10146  1.0000
  H   H214      1.0  0.37111  0.44093  0.46845  1.0000
  H   H215      1.0  0.05159  0.56706  0.18474  1.0000
  H   H216      1.0  0.05355  0.57312  0.41621  1.0000
  H   H217      1.0  0.99777  0.46097  0.10949  1.0000
  C   C123      1.0  0.30620  0.42747  0.44975  1.0000
  H   H218      1.0  0.98993  0.49749  0.33245  1.0000
  H   H219      1.0  0.36555  0.64184  0.18449  1.0000
  C   C124      1.0  0.30868  0.36536  0.43751  1.0000
  C   C125      1.0  0.31441  0.39994  0.42137  1.0000
  C   C126      1.0  0.40682  0.46907  0.43866  1.0000
  C   C127      1.0  0.14029  0.50211  0.35718  1.0000
  C   C128      1.0  0.21636  0.44658  0.49402  1.0000
  H   H220      1.0  0.00329  0.41326  0.14392  1.0000
  H   H221      1.0  0.05941  0.57727  0.23224  1.0000
  H   H222      1.0  0.06336  0.52416  0.10846  1.0000
  H   H223      1.0  0.14317  0.41874  0.19895  1.0000
  H   H224      1.0  0.03452  0.44134  0.15915  1.0000
  H   H225      1.0  0.03097  0.51558  0.07571  1.0000
  S   S32       1.0  0.14679  0.63769  0.09471  1.0000
  H   H226      1.0  0.08776  0.41178  0.25611  1.0000
  H   H227      1.0  0.12913  0.48152  0.37319  1.0000
  C   C129      1.0  0.01240  0.42728  0.16801  1.0000
  H   H228      1.0  0.09509  0.52021  0.33386  1.0000
  H   H229      1.0  0.32477  0.36124  0.46181  1.0000
  H   H230      1.0  0.28246  0.36237  0.44564  1.0000
  H   H231      1.0  0.10148  0.40465  0.19022  1.0000
  H   H232      1.0  0.07767  0.51209  0.19404  1.0000
  H   H233      1.0  0.12881  0.38065  0.21883  1.0000
  N   N6        1.0  0.09000  0.48360  0.26666  1.0000
  C   C130      1.0  0.08978  0.51885  0.25249  1.0000
  C   C131      1.0  0.11466  0.48034  0.29780  1.0000
  C   C132      1.0  0.10103  0.46153  0.23543  1.0000
  C   C133      1.0  0.05622  0.47201  0.27816  1.0000
  H   H234      1.0  0.42572  0.46654  0.46063  1.0000
  H   H235      1.0  0.37006  0.48543  0.47638  1.0000
  C   C134      1.0  0.10959  0.42499  0.24516  1.0000
  C   C135      1.0  0.06795  0.52552  0.21831  1.0000
  H   H236      1.0  0.00930  0.53217  0.13702  1.0000
  C   C136      1.0  0.12140  0.40624  0.21112  1.0000
  H   H237      1.0  0.11533  0.52638  0.24523  1.0000
  C   C137      1.0  0.00411  0.61585  0.26804  1.0000
  H   H238      1.0  0.00260  0.38630  0.20567  1.0000
  H   H239      1.0  0.09337  0.57051  0.20134  1.0000
  S   S33       1.0  0.01017  0.65329  0.16472  1.0000
  H   H240      1.0  0.34773  0.49626  0.41604  1.0000
  H   H241      1.0  0.02329  0.63073  0.03266  1.0000
  C   C138      1.0  0.99548  0.63557  0.20579  1.0000
  H   H242      1.0  0.03344  0.53347  0.42365  1.0000
  H   H243      1.0  0.28028  0.42357  0.45867  1.0000
  H   H244      1.0  0.27492  0.49208  0.33292  1.0000
  H   H245      1.0  0.05350  0.48173  0.09700  1.0000
  C   C139      1.0  0.37242  0.46568  0.45525  1.0000
  C   C140      1.0  0.07049  0.54834  0.48613  1.0000
  C   C141      1.0  0.20736  0.50629  0.49199  1.0000
  H   H246      1.0  0.26406  0.45648  0.40818  1.0000
  Fe  Fe19      1.0  0.09601  0.64643  0.07076  1.0000
  C   C142      1.0  0.26215  0.50507  0.35572  1.0000
  H   H247      1.0  0.26952  0.51872  0.41182  1.0000
  H   H248      1.0  0.23784  0.49305  0.36021  1.0000
  H   H249      1.0  0.25779  0.53124  0.34732  1.0000
  C   C143      1.0  0.28296  0.50415  0.39078  1.0000
  H   H250      1.0  0.08679  0.51016  0.44654  1.0000
  C   C144      1.0  0.35574  0.64788  0.15677  1.0000
  N   N7        1.0  0.31048  0.46294  0.43699  1.0000
  H   H251      1.0  0.98857  0.48618  0.28470  1.0000
  H   H252      1.0  0.99914  0.46663  0.20472  1.0000
  H   H253      1.0  0.13327  0.52037  0.48770  1.0000
  H   H254      1.0  0.06324  0.57967  0.01998  1.0000
  H   H255      1.0  0.04720  0.35260  0.27844  1.0000
  H   H256      1.0  0.04841  0.53266  0.49177  1.0000
  C   C145      1.0  0.09568  0.33431  0.26529  1.0000
  H   H257      1.0  0.23339  0.36625  0.18781  1.0000
  H   H258      1.0  0.06084  0.57419  0.48374  1.0000
  H   H259      1.0  0.10299  0.56549  0.00429  1.0000
  H   H260      1.0  0.32123  0.42215  0.47449  1.0000
  H   H261      1.0  0.11550  0.59891  0.46641  1.0000
  C   C146      1.0  0.21790  0.34978  0.17029  1.0000
  H   H262      1.0  0.14928  0.57118  0.47654  1.0000
  H   H263      1.0  0.32836  0.64707  0.15739  1.0000
  C   C147      1.0  0.13308  0.59068  0.48798  1.0000
  H   H264      1.0  0.19164  0.35257  0.17831  1.0000
  C   C148      1.0  0.02211  0.63667  0.00372  1.0000
  H   H265      1.0  0.00072  0.45573  0.31881  1.0000
  S   S34       1.0  0.28793  0.33009  0.28782  1.0000
  C   C149      1.0  0.99041  0.32620  0.00642  1.0000
  C   C150      1.0  0.15474  0.62060  0.49756  1.0000
  H   H266      1.0  0.08031  0.48110  0.49933  1.0000
  C   C151      1.0  0.12729  0.45632  0.49999  1.0000
  C   C152      1.0  0.98827  0.48311  0.12417  1.0000
  H   H267      1.0  0.11517  0.43156  0.50025  1.0000
  Fe  Fe20      1.0  0.20892  0.51994  0.65033  1.0000
  S   S35       1.0  0.16911  0.52816  0.60862  1.0000
  S   S36       1.0  0.21190  0.46671  0.67142  1.0000
  Fe  Fe21      1.0  0.23590  0.59124  0.64109  1.0000
  S   S37       1.0  0.19725  0.60395  0.59866  1.0000
  S   S38       1.0  0.27533  0.62670  0.66516  1.0000
  Fe  Fe22      1.0  0.16148  0.57761  0.63575  1.0000
  S   S39       1.0  0.10693  0.59008  0.63920  1.0000
  Fe  Fe23      1.0  0.20758  0.55316  0.57492  1.0000
  H   H268      1.0  0.07506  0.51598  0.97532  1.0000
  S   S40       1.0  0.19883  0.56783  0.68026  1.0000
  S   S41       1.0  0.24869  0.54199  0.61458  1.0000
  S   S42       1.0  0.12441  0.41603  0.80445  1.0000
  C   C153      1.0  0.14821  0.42962  0.76687  1.0000
  C   C154      1.0  0.16160  0.46179  0.76762  1.0000
  C   C155      1.0  0.18063  0.47364  0.73819  1.0000
  C   C156      1.0  0.18673  0.45320  0.70793  1.0000
  C   C157      1.0  0.17343  0.42092  0.70721  1.0000
  C   C158      1.0  0.15379  0.40934  0.73634  1.0000
  H   H269      1.0  0.15747  0.47749  0.79126  1.0000
  H   H270      1.0  0.19109  0.49839  0.73917  1.0000
  H   H271      1.0  0.17789  0.40504  0.68377  1.0000
  H   H272      1.0  0.14297  0.38480  0.73522  1.0000
  C   C159      1.0  0.08903  0.61196  0.67625  1.0000
  C   C160      1.0  0.10777  0.62299  0.70617  1.0000
  H   H273      1.0  0.18121  0.36181  0.80043  1.0000
  H   H274      1.0  0.06203  0.51709  0.55157  1.0000
  C   C161      1.0  0.03915  0.63204  0.70646  1.0000
  C   C162      1.0  0.05479  0.61715  0.67624  1.0000
  H   H275      1.0  0.13419  0.61946  0.70630  1.0000
  H   H276      1.0  0.01273  0.63567  0.70629  1.0000
  H   H277      1.0  0.04020  0.60917  0.65298  1.0000
  H   H278      1.0  0.13159  0.57624  0.54548  1.0000
  C   C163      1.0  0.99049  0.33618  0.96938  1.0000
  H   H279      1.0  0.21911  0.47920  0.54124  1.0000
  H   H280      1.0  0.27388  0.33222  0.79044  1.0000
  H   H281      1.0  0.03440  0.34420  0.71556  1.0000
  H   H282      1.0  0.23299  0.37233  0.69964  1.0000
  H   H283      1.0  0.15047  0.53781  0.78256  1.0000
  H   H284      1.0  0.05231  0.55424  0.69427  1.0000
  H   H285      1.0  0.02515  0.40385  0.74441  1.0000
  Fe  Fe24      1.0  0.10999  0.36181  0.81164  1.0000
  C   C164      1.0  0.06117  0.51616  0.89984  1.0000
  H   H286      1.0  0.21539  0.34116  0.82261  1.0000
  N   N8        1.0  0.07305  0.50847  0.71361  1.0000
  C   C165      1.0  0.08018  0.49610  0.67531  1.0000
  C   C166      1.0  0.06579  0.48079  0.74050  1.0000
  C   C167      1.0  0.04790  0.44947  0.72517  1.0000
  C   C168      1.0  0.11224  0.47555  0.67126  1.0000
  C   C169      1.0  0.01135  0.52010  0.69760  1.0000
  H   H287      1.0  0.05809  0.41856  0.77308  1.0000
  N   N9        1.0  0.04244  0.54659  0.91208  1.0000
  C   C170      1.0  0.11322  0.45680  0.63481  1.0000
  H   H288      1.0  0.08240  0.51753  0.65606  1.0000
  H   H289      1.0  0.05958  0.48092  0.66436  1.0000
  H   H290      1.0  0.08899  0.47140  0.75328  1.0000
  H   H291      1.0  0.06474  0.43487  0.70748  1.0000
  H   H292      1.0  0.02602  0.45583  0.70848  1.0000
  H   H293      1.0  0.13398  0.49235  0.67203  1.0000
  H   H294      1.0  0.11479  0.45736  0.69387  1.0000
  H   H295      1.0  0.01340  0.50658  0.67123  1.0000
  C   C171      1.0  0.05060  0.56792  0.56356  1.0000
  H   H296      1.0  0.07614  0.45293  0.87414  1.0000
  C   C172      1.0  0.00772  0.53770  0.92377  1.0000
  H   H297      1.0  0.05549  0.63265  0.84729  1.0000
  H   H298      1.0  0.99901  0.55529  0.94542  1.0000
  H   H299      1.0  0.11075  0.47439  0.61150  1.0000
  H   H300      1.0  0.13724  0.44374  0.63229  1.0000
  H   H301      1.0  0.09316  0.43802  0.63348  1.0000
  H   H302      1.0  0.21624  0.39274  0.75967  1.0000
  H   H303      1.0  0.14471  0.57536  0.75611  1.0000
  C   C173      1.0  0.11900  0.51803  0.51346  1.0000
  H   H304      1.0  0.04284  0.55006  0.61930  1.0000
  H   H305      1.0  0.02692  0.59465  0.89262  1.0000
  C   C174      1.0  0.21448  0.47753  0.51200  1.0000
  H   H306      1.0  0.31820  0.52598  0.52805  1.0000
  C   C175      1.0  0.04152  0.57307  0.88275  1.0000
  H   H307      1.0  0.09844  0.47577  0.54389  1.0000
  H   H308      1.0  0.25907  0.33758  0.69616  1.0000
  H   H309      1.0  0.08638  0.56644  0.93860  1.0000
  H   H310      1.0  0.03967  0.54353  0.73938  1.0000
  H   H311      1.0  0.06015  0.49655  0.92131  1.0000
  H   H312      1.0  0.13960  0.64138  0.50840  1.0000
  C   C176      1.0  0.20738  0.36448  0.80898  1.0000
  H   H313      1.0  0.09730  0.59928  0.52905  1.0000
  H   H314      1.0  0.22243  0.42451  0.50961  1.0000
  H   H315      1.0  0.13041  0.57326  0.80276  1.0000
  H   H316      1.0  0.09762  0.48254  0.84545  1.0000
  C   C177      1.0  0.07529  0.58651  0.86959  1.0000
  C   C178      1.0  0.99282  0.63097  0.98369  1.0000
  H   H317      1.0  0.04890  0.58535  0.95265  1.0000
  H   H318      1.0  0.08963  0.52970  0.78533  1.0000
  H   H319      1.0  0.09501  0.62095  0.82926  1.0000
  H   H320      1.0  0.04719  0.51684  0.84090  1.0000
  H   H321      1.0  0.19178  0.38708  0.86013  1.0000
  H   H322      1.0  0.11093  0.54594  0.70568  1.0000
  H   H323      1.0  0.00290  0.37386  0.66679  1.0000
  H   H324      1.0  0.01383  0.53374  0.58583  1.0000
  S   S43       1.0  0.13582  0.33076  0.85380  1.0000
  C   C179      1.0  0.29987  0.50601  0.53320  1.0000
  C   C180      1.0  0.07072  0.61124  0.83822  1.0000
  H   H325      1.0  0.27471  0.51636  0.52961  1.0000
  C   C181      1.0  0.30016  0.38725  0.68607  1.0000
  H   H326      1.0  0.01718  0.33659  0.91794  1.0000
  H   H327      1.0  0.05854  0.59919  0.81429  1.0000
  C   C182      1.0  0.10316  0.52736  0.72667  1.0000
  S   S44       1.0  0.20715  0.54599  0.51292  1.0000
  H   H328      1.0  0.12435  0.51022  0.72986  1.0000
  C   C183      1.0  0.09996  0.54608  0.76376  1.0000
  C   C184      1.0  0.28151  0.38089  0.72173  1.0000
  H   H329      1.0  0.08383  0.56818  0.76056  1.0000
  H   H330      1.0  0.05106  0.49056  0.76387  1.0000
  C   C185      1.0  0.04998  0.64934  0.98607  1.0000
  C   C186      1.0  0.07311  0.47187  0.85219  1.0000
  C   C187      1.0  0.06015  0.56107  0.94505  1.0000
  S   S45       1.0  0.05982  0.34849  0.83351  1.0000
  H   H331      1.0  0.03575  0.53237  0.98928  1.0000
  H   H332      1.0  0.23418  0.39522  0.84849  1.0000
  C   C188      1.0  0.13347  0.55883  0.77703  1.0000
  H   H333      1.0  0.28350  0.39859  0.66526  1.0000
  C   C189      1.0  0.04498  0.53298  0.71182  1.0000
  H   H334      1.0  0.29887  0.37044  0.74229  1.0000
  H   H335      1.0  0.06342  0.45914  0.82734  1.0000
  H   H336      1.0  0.30253  0.49764  0.56211  1.0000
  C   C190      1.0  0.20886  0.39262  0.83717  1.0000
  H   H337      1.0  0.09366  0.53810  0.57653  1.0000
  C   C191      1.0  0.05787  0.64331  0.73628  1.0000
  H   H338      1.0  0.32083  0.40477  0.69136  1.0000
  H   H339      1.0  0.09120  0.56608  0.85952  1.0000
  C   C192      1.0  0.11392  0.57835  0.52200  1.0000
  H   H340      1.0  0.13814  0.51920  0.53545  1.0000
  C   C193      1.0  0.03672  0.42652  0.75615  1.0000
  H   H341      1.0  0.02502  0.48702  0.86873  1.0000
  C   C194      1.0  0.04920  0.49914  0.86406  1.0000
  N   N10       1.0  0.23611  0.34347  0.74963  1.0000
  H   H342      1.0  0.01842  0.43919  0.77390  1.0000
  H   H343      1.0  0.08825  0.60003  0.89195  1.0000
  C   C195      1.0  0.07613  0.54075  0.55299  1.0000
  H   H344      1.0  0.02816  0.56442  0.85793  1.0000
  H   H345      1.0  0.25213  0.38349  0.78541  1.0000
  H   H346      1.0  0.08786  0.52202  0.89691  1.0000
  C   C196      1.0  0.00871  0.33836  0.71080  1.0000
  H   H347      1.0  0.00729  0.51260  0.93666  1.0000
  H   H348      1.0  0.20116  0.41651  0.82447  1.0000
  H   H349      1.0  0.31045  0.36370  0.67507  1.0000
  C   C197      1.0  0.20375  0.32731  0.73924  1.0000
  H   H350      1.0  0.27290  0.40543  0.73200  1.0000
  H   H351      1.0  0.06322  0.59068  0.57364  1.0000
  C   C198      1.0  0.02808  0.55603  0.59445  1.0000
  H   H352      1.0  0.99699  0.56578  0.66939  1.0000
  C   C199      1.0  0.22878  0.37237  0.77492  1.0000
  H   H353      1.0  0.03472  0.57479  0.53993  1.0000
  C   C200      1.0  0.06092  0.53915  0.98017  1.0000
  C   C201      1.0  0.09225  0.63898  0.73586  1.0000
  H   H354      1.0  0.00000  0.50365  0.71848  1.0000
  C   C202      1.0  0.99094  0.63824  0.94600  1.0000
  H   H355      1.0  0.18731  0.34582  0.72577  1.0000
  C   C203      1.0  0.25155  0.35754  0.71534  1.0000
  C   C204      1.0  0.01744  0.32885  0.94636  1.0000
  H   H356      1.0  0.01041  0.57608  0.60156  1.0000
  C   C205      1.0  0.10376  0.48257  0.51497  1.0000
  N   N11       1.0  0.09482  0.54630  0.51765  1.0000
  H   H357      1.0  0.01730  0.65796  0.89972  1.0000
  C   C206      1.0  0.99087  0.35498  0.68307  1.0000
  H   H358      1.0  0.10693  0.64795  0.75868  1.0000
  H   H359      1.0  0.17357  0.61364  0.51837  1.0000
  C   C207      1.0  0.01847  0.65194  0.92864  1.0000
  H   H360      1.0  0.28788  0.45668  0.51507  1.0000
  H   H361      1.0  0.14964  0.45494  0.51755  1.0000
  H   H362      1.0  0.33057  0.46721  0.51213  1.0000
  C   C208      1.0  0.30111  0.65884  0.64697  1.0000
  C   C209      1.0  0.30541  0.47669  0.50721  1.0000
  C   C210      1.0  0.04791  0.65715  0.94850  1.0000
  Fe  Fe25      1.0  0.13362  0.67667  0.13661  1.0000
  C   C211      1.0  0.16188  0.74561  0.02536  1.0000
  S   S46       1.0  0.16540  0.72062  0.15727  1.0000
  H   H363      1.0  0.10473  0.75894  0.14999  1.0000
  C   C212      1.0  0.13210  0.79819  0.02196  1.0000
  C   C213      1.0  0.06923  0.76334  0.01299  1.0000
  C   C214      1.0  0.45409  0.91560  0.46184  1.0000
  C   C215      1.0  0.36780  0.68210  0.14438  1.0000
  S   S47       1.0  0.08436  0.68755  0.11022  1.0000
  Fe  Fe26      1.0  0.32009  0.85031  0.11546  1.0000
  S   S48       1.0  0.36735  0.85063  0.08311  1.0000
  S   S49       1.0  0.28789  0.80586  0.09750  1.0000
  Fe  Fe27      1.0  0.34190  0.91336  0.15602  1.0000
  S   S50       1.0  0.39000  0.91730  0.12645  1.0000
  Fe  Fe28      1.0  0.36034  0.90545  0.07609  1.0000
  S   S51       1.0  0.37665  0.92869  0.02231  1.0000
  Fe  Fe29      1.0  0.39338  0.86231  0.13590  1.0000
  S   S52       1.0  0.44362  0.83820  0.14296  1.0000
  S   S53       1.0  0.31136  0.90504  0.10460  1.0000
  S   S54       1.0  0.34701  0.85862  0.16924  1.0000
  C   C216      1.0  0.25465  0.78210  0.11597  1.0000
  C   C217      1.0  0.23545  0.79316  0.14538  1.0000
  C   C218      1.0  0.20845  0.77394  0.15767  1.0000
  C   C219      1.0  0.20040  0.74328  0.14108  1.0000
  C   C220      1.0  0.22035  0.73176  0.11254  1.0000
  C   C221      1.0  0.24694  0.75122  0.09978  1.0000
  H   H364      1.0  0.24101  0.81677  0.15824  1.0000
  H   H365      1.0  0.19352  0.78301  0.18009  1.0000
  H   H366      1.0  0.21569  0.70758  0.10072  1.0000
  H   H367      1.0  0.26183  0.74213  0.07736  1.0000
  H   H368      1.0  0.45078  0.98816  0.31077  1.0000
  H   H369      1.0  0.38657  0.72589  0.09211  1.0000
  H   H370      1.0  0.18381  0.75960  0.03575  1.0000
  H   H371      1.0  0.33024  0.74980  0.12269  1.0000
  H   H372      1.0  0.35949  0.70163  0.19910  1.0000
  H   H373      1.0  0.12790  0.79710  0.14474  1.0000
  H   H374      1.0  0.19889  0.66721  0.03251  1.0000
  C   C222      1.0  0.43883  0.75251  0.38145  1.0000
  C   C223      1.0  0.46399  0.82763  0.18432  1.0000
  C   C224      1.0  0.44681  0.82255  0.21702  1.0000
  C   C225      1.0  0.46337  0.80970  0.24798  1.0000
  H   H375      1.0  0.46512  0.71013  0.18000  1.0000
  H   H376      1.0  0.42640  0.73191  0.45366  1.0000
  H   H377      1.0  0.42058  0.82719  0.21798  1.0000
  H   H378      1.0  0.44965  0.80466  0.27269  1.0000
  H   H379      1.0  0.07740  0.76704  0.09111  1.0000
  H   H380      1.0  0.44488  0.79011  0.44161  1.0000
  C   C226      1.0  0.44664  0.97774  0.08258  1.0000
  H   H381      1.0  0.42884  0.72892  0.39282  1.0000
  C   C227      1.0  0.10134  0.74371  0.02140  1.0000
  H   H382      1.0  0.15291  0.77629  0.08840  1.0000
  C   C228      1.0  0.45905  0.73126  0.19840  1.0000
  H   H383      1.0  0.48171  0.70893  0.40608  1.0000
  H   H384      1.0  0.39951  0.95127  0.19556  1.0000
  C   C229      1.0  0.40552  0.74569  0.16566  1.0000
  C   C230      1.0  0.35595  0.75834  0.12812  1.0000
  C   C231      1.0  0.35559  0.76617  0.19488  1.0000
  C   C232      1.0  0.42172  0.73476  0.20237  1.0000
  C   C233      1.0  0.31789  0.77321  0.19471  1.0000
  C   C234      1.0  0.37708  0.75158  0.09339  1.0000
  C   C235      1.0  0.47038  0.96588  0.42382  1.0000
  H   H385      1.0  0.45112  0.76952  0.32535  1.0000
  C   C236      1.0  0.30749  0.79220  0.22912  1.0000
  H   H386      1.0  0.41403  0.77157  0.16000  1.0000
  N   N12       1.0  0.36832  0.74436  0.16421  1.0000
  H   H387      1.0  0.35439  0.78600  0.12963  1.0000
  H   H388      1.0  0.36833  0.79076  0.19444  1.0000
  H   H389      1.0  0.36148  0.75503  0.22208  1.0000
  H   H390      1.0  0.41713  0.75367  0.22398  1.0000
  H   H391      1.0  0.31094  0.78860  0.17071  1.0000
  H   H392      1.0  0.39875  0.76857  0.09338  1.0000
  H   H393      1.0  0.16729  0.70710  0.06815  1.0000
  C   C237      1.0  0.10013  0.78176  0.09596  1.0000
  H   H394      1.0  0.41674  0.73050  0.14366  1.0000
  H   H395      1.0  0.48370  0.93246  0.12854  1.0000
  H   H396      1.0  0.28077  0.79805  0.22739  1.0000
  H   H397      1.0  0.31185  0.77694  0.25406  1.0000
  H   H398      1.0  0.32131  0.81595  0.23162  1.0000
  C   C238      1.0  0.12993  0.76429  0.07785  1.0000
  N   N13       1.0  0.47073  0.76150  0.40040  1.0000
  H   H399      1.0  0.09504  0.72311  0.04050  1.0000
  C   C239      1.0  0.32585  0.97355  0.01032  1.0000
  H   H400      1.0  0.39040  0.76247  0.32726  1.0000
  H   H401      1.0  0.21872  0.70727  0.03004  1.0000
  C   C240      1.0  0.10453  0.78415  0.13758  1.0000
  H   H402      1.0  0.12995  0.73889  0.08950  1.0000
  C   C241      1.0  0.45051  0.74102  0.46402  1.0000
  H   H403      1.0  0.39564  0.71825  0.33494  1.0000
  C   C242      1.0  0.19640  0.69299  0.02194  1.0000
  H   H404      1.0  0.33601  0.74059  0.05647  1.0000
  H   H405      1.0  0.44259  0.89052  0.46080  1.0000
  S   S55       1.0  0.32779  0.95339  0.19698  1.0000
  H   H406      1.0  0.44228  0.81725  0.36211  1.0000
  C   C243      1.0  0.35745  0.75773  0.05815  1.0000
  C   C244      1.0  0.40687  0.74083  0.32265  1.0000
  H   H407      1.0  0.45676  0.72577  0.33252  1.0000
  H   H408      1.0  0.32784  0.70935  0.16706  1.0000
  H   H409      1.0  0.10922  0.81204  0.02824  1.0000
  H   H410      1.0  0.42564  0.93440  0.41689  1.0000
  H   H411      1.0  0.08369  0.79822  0.14965  1.0000
  H   H412      1.0  0.46728  0.87202  0.35422  1.0000
  H   H413      1.0  0.41956  0.77149  0.38724  1.0000
  H   H414      1.0  0.46366  0.91460  0.40411  1.0000
  C   C245      1.0  0.44091  0.74737  0.33925  1.0000
  H   H415      1.0  0.30315  0.75004  0.19373  1.0000
  H   H416      1.0  0.15203  0.81226  0.03640  1.0000
  H   H417      1.0  0.47331  0.97969  0.07629  1.0000
  C   C246      1.0  0.46489  0.82266  0.37821  1.0000
  H   H418      1.0  0.41206  0.71048  0.21182  1.0000
  C   C247      1.0  0.35509  0.70968  0.17029  1.0000
  H   H419      1.0  0.43561  0.95857  0.06425  1.0000
  H   H420      1.0  0.40923  0.73686  0.29260  1.0000
  H   H421      1.0  0.06194  0.77993  0.03571  1.0000
  H   H422      1.0  0.34838  0.78372  0.05715  1.0000
  H   H423      1.0  0.41714  0.97218  0.37049  1.0000
  C   C248      1.0  0.46353  0.76991  0.43991  1.0000
  H   H424      1.0  0.09674  0.80740  0.08562  1.0000
  H   H425      1.0  0.28425  0.98676  0.14175  1.0000
  H   H426      1.0  0.35791  0.68605  0.11630  1.0000
  H   H427      1.0  0.03617  0.72303  0.02912  1.0000
  H   H428      1.0  0.31788  0.89053  0.00895  1.0000
  C   C249      1.0  0.16543  0.70892  0.03796  1.0000
  H   H429      1.0  0.31364  0.96255  0.03370  1.0000
  H   H430      1.0  0.45759  0.83266  0.40540  1.0000
  H   H431      1.0  0.46993  0.75432  0.18693  1.0000
  H   H432      1.0  0.38201  0.99003  0.06642  1.0000
  N   N14       1.0  0.13043  0.76308  0.03638  1.0000
  H   H433      1.0  0.47045  0.72668  0.22572  1.0000
  C   C250      1.0  0.39204  0.97320  0.21042  1.0000
  H   H434      1.0  0.46514  0.94518  0.35304  1.0000
  H   H435      1.0  0.37343  0.75345  0.03394  1.0000
  C   C251      1.0  0.47882  0.96884  0.35737  1.0000
  C   C252      1.0  0.35857  0.97997  0.21534  1.0000
  H   H436      1.0  0.44072  0.93069  0.48253  1.0000
  H   H437      1.0  0.39507  0.68115  0.14364  1.0000
  H   H438      1.0  0.44184  0.98884  0.22180  1.0000
  C   C253      1.0  0.45210  0.93189  0.42400  1.0000
  H   H439      1.0  0.14409  0.69381  0.02895  1.0000
  C   C254      1.0  0.47680  0.98744  0.32030  1.0000
  H   H440      1.0  0.44365  0.96989  0.11155  1.0000
  H   H441      1.0  0.27802  0.87189  0.01485  1.0000
  H   H442      1.0  0.46808  0.71994  0.46471  1.0000
  H   H443      1.0  0.46507  0.89275  0.08205  1.0000
  H   H444      1.0  0.33426  0.98245  0.10482  1.0000
  N   N15       1.0  0.46542  0.98728  0.39010  1.0000
  H   H445      1.0  0.46276  0.97990  0.44885  1.0000
  H   H446      1.0  0.48013  0.91273  0.47082  1.0000
  C   C255      1.0  0.48674  0.79128  0.38277  1.0000
  H   H447      1.0  0.48579  0.78030  0.45350  1.0000
  C   C256      1.0  0.48354  0.85011  0.35797  1.0000
  C   C257      1.0  0.04049  0.73970  0.00529  1.0000
  H   H448      1.0  0.48753  0.94374  0.28697  1.0000
  Fe  Fe30      1.0  0.45793  0.82417  0.57389  1.0000
  Fe  Fe31      1.0  0.42184  0.85359  0.64086  1.0000
  S   S56       1.0  0.42385  0.80544  0.67252  1.0000
  S   S57       1.0  0.40046  0.90478  0.65269  1.0000
  Fe  Fe32      1.0  0.40943  0.78034  0.61898  1.0000
  S   S58       1.0  0.36690  0.74475  0.60345  1.0000
  S   S59       1.0  0.47490  0.85226  0.62356  1.0000
  S   S60       1.0  0.40466  0.82906  0.58889  1.0000
  C   C258      1.0  0.13871  0.80153  0.98016  1.0000
  H   H449      1.0  0.32877  0.87515  0.93054  1.0000
  H   H450      1.0  0.24299  0.82820  0.87501  1.0000
  C   C259      1.0  0.36141  0.93737  0.88274  1.0000
  S   S61       1.0  0.31763  0.96346  0.78566  1.0000
  C   C260      1.0  0.34600  0.69923  0.65701  1.0000
  C   C261      1.0  0.32526  0.67346  0.66985  1.0000
  H   H451      1.0  0.30892  0.85057  0.98841  1.0000
  H   H452      1.0  0.24277  0.93176  0.92419  1.0000
  C   C262      1.0  0.32408  0.88172  0.60907  1.0000
  C   C263      1.0  0.38953  0.93797  0.85499  1.0000
  H   H453      1.0  0.48539  0.92968  0.64011  1.0000
  C   C264      1.0  0.32397  0.82887  0.64807  1.0000
  C   C265      1.0  0.36720  0.77349  0.74183  1.0000
  H   H454      1.0  0.23927  0.87209  0.72741  1.0000
  C   C266      1.0  0.32431  0.78269  0.69221  1.0000
  H   H455      1.0  0.34730  0.88720  0.87134  1.0000
  H   H456      1.0  0.21534  0.98609  0.91563  1.0000
  H   H457      1.0  0.32626  0.89818  0.63348  1.0000
  C   C267      1.0  0.37738  0.91989  0.69023  1.0000
  C   C268      1.0  0.36493  0.95243  0.68833  1.0000
  C   C269      1.0  0.34746  0.96628  0.71784  1.0000
  C   C270      1.0  0.34143  0.94737  0.74921  1.0000
  C   C271      1.0  0.35317  0.91450  0.75088  1.0000
  C   C272      1.0  0.37151  0.90092  0.72168  1.0000
  H   H458      1.0  0.36873  0.96704  0.66383  1.0000
  H   H459      1.0  0.42410  0.96827  0.72891  1.0000
  H   H460      1.0  0.34842  0.89965  0.77501  1.0000
  H   H461      1.0  0.38119  0.87596  0.72353  1.0000
  H   H462      1.0  0.99486  0.74840  0.93510  1.0000
  H   H463      1.0  0.27595  0.91727  0.96941  1.0000
  H   H464      1.0  0.34909  0.87579  0.59879  1.0000
  H   H465      1.0  0.32845  0.80915  0.74466  1.0000
  H   H466      1.0  0.29984  0.83985  0.89645  1.0000
  H   H467      1.0  0.26449  0.85250  0.76244  1.0000
  H   H468      1.0  0.27073  0.80701  0.71722  1.0000
  C   C273      1.0  0.44553  0.75250  0.50362  1.0000
  H   H469      1.0  0.19470  0.69186  0.99152  1.0000
  H   H470      1.0  0.23923  0.94289  0.87673  1.0000
  C   C274      1.0  0.37226  0.97621  0.96906  1.0000
  C   C275      1.0  0.27785  0.82318  0.69373  1.0000
  H   H471      1.0  0.33803  0.84587  0.66633  1.0000
  N   N16       1.0  0.30410  0.91064  0.89505  1.0000
  C   C276      1.0  0.27987  0.88761  0.87628  1.0000
  H   H472      1.0  0.36075  0.81921  0.71238  1.0000
  H   H473      1.0  0.35220  0.75390  0.75532  1.0000
  H   H474      1.0  0.38260  0.78596  0.76304  1.0000
  H   H475      1.0  0.34342  0.81469  0.63323  1.0000
  C   C277      1.0  0.28840  0.85770  0.70931  1.0000
  C   C278      1.0  0.26356  0.82972  0.85505  1.0000
  H   H476      1.0  0.28864  0.87666  0.68722  1.0000
  H   H477      1.0  0.30949  0.76335  0.70633  1.0000
  H   H478      1.0  0.46417  0.97101  0.68462  1.0000
  H   H479      1.0  0.30269  0.95988  0.91922  1.0000
  H   H480      1.0  0.10789  0.73098  0.99521  1.0000
  H   H481      1.0  0.13543  0.83789  0.93633  1.0000
  H   H482      1.0  0.33116  0.91646  0.94596  1.0000
  H   H483      1.0  0.25438  0.82764  0.67852  1.0000
  H   H484      1.0  0.27261  0.89476  0.74875  1.0000
  H   H485      1.0  0.42842  0.97141  0.65730  1.0000
  Fe  Fe33      1.0  0.47614  0.80248  0.65102  1.0000
  C   C279      1.0  0.34266  0.71113  0.62107  1.0000
  H   H486      1.0  0.45315  0.93616  0.60659  1.0000
  H   H487      1.0  0.34155  0.76913  0.67381  1.0000
  H   H488      1.0  0.22129  0.75841  0.62150  1.0000
  H   H489      1.0  0.25411  0.73185  0.60503  1.0000
  H   H490      1.0  0.29506  0.95947  0.87131  1.0000
  H   H491      1.0  0.37222  0.93084  0.90976  1.0000
  C   C280      1.0  0.26462  0.86986  0.73878  1.0000
  H   H492      1.0  0.32772  0.91686  0.84240  1.0000
  C   C281      1.0  0.24024  0.73992  0.62971  1.0000
  H   H493      1.0  0.22759  0.71781  0.64134  1.0000
  C   C282      1.0  0.28601  0.89288  0.96062  1.0000
  H   H494      1.0  0.30246  0.83505  0.59324  1.0000
  H   H495      1.0  0.04567  0.72427  0.98068  1.0000
  H   H496      1.0  0.26679  0.79909  0.62574  1.0000
  C   C283      1.0  0.28417  0.78378  0.64228  1.0000
  H   H497      1.0  0.31553  0.70549  0.57043  1.0000
  H   H498      1.0  0.16541  0.79795  0.97470  1.0000
  H   H499      1.0  0.36452  0.70983  0.67496  1.0000
  C   C284      1.0  0.35670  0.96175  0.99945  1.0000
  S   S62       1.0  0.46200  0.77383  0.59989  1.0000
  C   C285      1.0  0.12930  0.83599  0.96594  1.0000
  H   H500      1.0  0.25416  0.84010  0.82879  1.0000
  H   H501      1.0  0.40818  0.95669  0.86360  1.0000
  H   H502      1.0  0.28048  0.85712  0.62819  1.0000
  C   C286      1.0  0.33465  0.91171  0.87146  1.0000
  H   H503      1.0  0.31334  0.85731  0.72154  1.0000
  N   N17       1.0  0.30252  0.80532  0.66970  1.0000
  H   H504      1.0  0.16413  0.74477  0.99498  1.0000
  C   C287      1.0  0.26364  0.75466  0.65842  1.0000
  H   H505      1.0  0.30168  0.77275  0.62213  1.0000
  C   C288      1.0  0.31848  0.69658  0.59825  1.0000
  H   H506      1.0  0.25632  0.88618  0.89143  1.0000
  C   C289      1.0  0.30544  0.84994  0.61879  1.0000
  C   C290      1.0  0.34490  0.79907  0.72311  1.0000
  H   H507      1.0  0.31057  0.89540  0.58727  1.0000
  H   H508      1.0  0.24877  0.76290  0.68223  1.0000
  H   H509      1.0  0.38010  0.94501  0.82741  1.0000
  H   H510      1.0  0.26596  0.87730  0.94915  1.0000
  C   C291      1.0  0.25222  0.94877  0.90289  1.0000
  H   H511      1.0  0.27318  0.89795  0.84880  1.0000
  H   H512      1.0  0.31193  0.85028  0.85019  1.0000
  C   C292      1.0  0.24258  0.98402  0.91410  1.0000
  C   C293      1.0  0.29859  0.87539  0.99519  1.0000
  C   C294      1.0  0.29004  0.94549  0.89719  1.0000
  H   H513      1.0  0.27277  0.80414  0.84986  1.0000
  H   H514      1.0  0.40164  0.91327  0.85332  1.0000
  H   H515      1.0  0.38382  0.76151  0.72159  1.0000
  H   H516      1.0  0.42231  0.97823  0.79497  1.0000
  H   H517      1.0  0.35124  0.96288  0.88415  1.0000
  C   C295      1.0  0.29150  0.85127  0.87032  1.0000
  H   H518      1.0  0.28017  0.73420  0.66738  1.0000
  H   H519      1.0  0.12488  0.78261  0.96410  1.0000
  H   H520      1.0  0.01767  0.75421  0.00017  1.0000
  C   C296      1.0  0.31411  0.89841  0.93267  1.0000
  C   C297      1.0  0.29796  0.67060  0.61097  1.0000
  H   H521      1.0  0.10241  0.84026  0.96911  1.0000
  H   H522      1.0  0.46937  0.76052  0.51586  1.0000
  H   H523      1.0  0.42786  0.77356  0.50488  1.0000
  H   H524      1.0  0.39629  0.96741  0.96071  1.0000
  H   H525      1.0  0.14309  0.85559  0.98110  1.0000
  H   H526      1.0  0.06928  0.66703  0.93458  1.0000
  C   C298      1.0  0.45162  0.98534  0.66276  1.0000
  H   H527      1.0  0.33796  0.99137  0.71601  1.0000
  H   H528      1.0  0.43556  0.73175  0.52036  1.0000
  H   H529      1.0  0.46012  0.99039  0.74405  1.0000
  H   H530      1.0  0.25307  0.99020  0.94145  1.0000
  H   H531      1.0  0.32806  0.66459  0.69771  1.0000
  H   H532      1.0  0.07248  0.77908  0.98828  1.0000
  S   S63       1.0  0.47367  0.84075  0.51686  1.0000
  C   C299      1.0  0.47727  0.94553  0.61683  1.0000
  H   H533      1.0  0.27955  0.65981  0.59300  1.0000
  C   C300      1.0  0.47425  0.98190  0.62866  1.0000
  S   S64       1.0  0.03940  0.66418  0.77363  1.0000
  H   H534      1.0  0.57643  0.15114  0.45045  1.0000
  C   C301      1.0  0.68597  0.25057  0.47809  1.0000
  H   H535      1.0  0.65476  0.99526  0.31922  1.0000
  S   S65       1.0  0.53496  0.16846  0.28190  1.0000
  H   H536      1.0  0.54298  0.22575  0.43138  1.0000
  S   S66       1.0  0.67502  0.02034  0.13211  1.0000
  Fe  Fe34      1.0  0.72636  0.10075  0.15462  1.0000
  S   S67       1.0  0.68579  0.09900  0.11205  1.0000
  S   S68       1.0  0.75070  0.15139  0.16663  1.0000
  Fe  Fe35      1.0  0.65667  0.06964  0.15329  1.0000
  S   S69       1.0  0.60166  0.07191  0.16493  1.0000
  Fe  Fe36      1.0  0.70755  0.04996  0.09454  1.0000
  S   S70       1.0  0.71887  0.04255  0.03357  1.0000
  S   S71       1.0  0.69510  0.07479  0.19722  1.0000
  S   S72       1.0  0.74965  0.05327  0.13503  1.0000
  C   C302      1.0  0.61531  0.06752  0.34430  1.0000
  H   H537      1.0  0.84341  0.14879  0.06009  1.0000
  S   S73       1.0  0.94712  0.28400  0.19294  1.0000
  Fe  Fe37      1.0  0.92040  0.26431  0.14304  1.0000
  S   S74       1.0  0.89525  0.21288  0.14329  1.0000
  H   H538      1.0  0.95813  0.28858  0.27573  1.0000
  H   H539      1.0  0.59160  0.00566  0.36363  1.0000
  C   C303      1.0  0.85456  0.19665  0.14893  1.0000
  C   C304      1.0  0.82738  0.21687  0.15645  1.0000
  C   C305      1.0  0.79586  0.20259  0.16146  1.0000
  C   C306      1.0  0.79092  0.16798  0.15881  1.0000
  C   C307      1.0  0.81807  0.14777  0.15106  1.0000
  C   C308      1.0  0.84962  0.16203  0.14613  1.0000
  H   H540      1.0  0.83064  0.24348  0.15871  1.0000
  H   H541      1.0  0.77511  0.21850  0.16761  1.0000
  H   H542      1.0  0.81480  0.12113  0.14967  1.0000
  H   H543      1.0  0.87042  0.14607  0.14048  1.0000
  C   C309      1.0  0.55367  0.14125  0.24988  1.0000
  C   C310      1.0  0.58718  0.14507  0.24113  1.0000
  C   C311      1.0  0.60246  0.12372  0.21559  1.0000
  C   C312      1.0  0.58406  0.09893  0.19793  1.0000
  C   C313      1.0  0.55055  0.09526  0.20662  1.0000
  C   C314      1.0  0.53552  0.11598  0.23280  1.0000
  H   H544      1.0  0.60137  0.16463  0.25411  1.0000
  H   H545      1.0  0.62824  0.12692  0.20899  1.0000
  H   H546      1.0  0.53610  0.07630  0.19299  1.0000
  H   H547      1.0  0.50969  0.11281  0.23919  1.0000
  C   C315      1.0  0.52763  0.13108  0.44158  1.0000
  H   H548      1.0  0.80998  0.17428  0.07436  1.0000
  C   C316      1.0  0.69376  0.04080  0.29154  1.0000
  H   H549      1.0  0.52715  0.13696  0.41261  1.0000
  H   H550      1.0  0.84446  0.09263  0.10128  1.0000
  H   H551      1.0  0.62711  0.06812  0.37200  1.0000
  H   H552      1.0  0.63488  0.11796  0.33679  1.0000
  H   H553      1.0  0.62507  0.06102  0.26268  1.0000
  H   H554      1.0  0.83894  0.09673  0.03368  1.0000
  H   H555      1.0  0.62773  0.01785  0.26852  1.0000
  H   H556      1.0  0.65595  0.22652  0.43584  1.0000
  H   H557      1.0  0.94601  0.15986  0.27643  1.0000
  Fe  Fe38      1.0  0.71507  0.02714  0.17403  1.0000
  H   H558      1.0  0.56902  0.02751  0.30593  1.0000
  H   H559      1.0  0.65379  0.27153  0.43584  1.0000
  C   C317      1.0  0.74314  0.16586  0.06475  1.0000
  C   C318      1.0  0.61814  0.04064  0.28194  1.0000
  H   H560      1.0  0.79271  0.12073  0.08108  1.0000
  H   H561      1.0  0.55981  0.11078  0.34526  1.0000
  H   H562      1.0  0.76781  0.08961  0.06194  1.0000
  C   C319      1.0  0.64028  0.01202  0.33731  1.0000
  C   C320      1.0  0.72554  0.06066  0.28618  1.0000
  H   H563      1.0  0.65524  0.01555  0.36278  1.0000
  S   S75       1.0  0.90441  0.31563  0.12462  1.0000
  H   H564      1.0  0.86894  0.14902  0.22322  1.0000
  C   C321      1.0  0.82578  0.16808  0.05070  1.0000
  H   H565      1.0  0.59027  0.05778  0.34928  1.0000
  H   H566      1.0  0.70272  0.19705  0.04531  1.0000
  C   C322      1.0  0.57977  0.03934  0.28141  1.0000
  C   C323      1.0  0.52191  0.01734  0.39722  1.0000
  H   H567      1.0  0.58825  0.12071  0.38226  1.0000
  C   C324      1.0  0.74666  0.14385  0.03022  1.0000
  H   H568      1.0  0.53969  0.02376  0.24596  1.0000
  H   H569      1.0  0.57186  0.99316  0.25160  1.0000
  H   H570      1.0  0.66530  0.08518  0.29837  1.0000
  C   C325      1.0  0.84585  0.19908  0.04133  1.0000
  C   C326      1.0  0.50189  0.10700  0.49502  1.0000
  H   H571      1.0  0.72765  0.12378  0.03185  1.0000
  C   C327      1.0  0.78892  0.10633  0.05544  1.0000
  H   H572      1.0  0.74850  0.15136  0.08980  1.0000
  H   H573      1.0  0.54757  0.00231  0.15226  1.0000
  C   C328      1.0  0.89237  0.14388  0.23805  1.0000
  C   C329      1.0  0.66799  0.06124  0.31342  1.0000
  C   C330      1.0  0.97985  0.27742  0.28968  1.0000
  H   H574      1.0  0.70064  0.27380  0.47995  1.0000
  H   H575      1.0  0.53124  0.99766  0.41570  1.0000
  S   S76       1.0  0.96676  0.26477  0.10886  1.0000
  H   H576      1.0  0.70585  0.19329  0.09455  1.0000
  C   C331      1.0  0.83434  0.07143  0.08529  1.0000
  C   C332      1.0  0.81939  0.08365  0.04922  1.0000
  C   C333      1.0  0.95164  0.16322  0.24679  1.0000
  H   H577      1.0  0.56981  0.06503  0.28014  1.0000
  C   C334      1.0  0.56673  0.02008  0.24828  1.0000
  H   H578      1.0  0.68969  0.15927  0.06783  1.0000
  H   H579      1.0  0.96092  0.13859  0.23748  1.0000
  H   H580      1.0  0.56469  0.04811  0.40920  1.0000
  H   H581      1.0  0.50160  0.02315  0.19250  1.0000
  H   H582      1.0  0.60621  0.10562  0.30171  1.0000
  C   C335      1.0  0.55555  0.13898  0.46304  1.0000
  H   H583      1.0  0.86057  0.20685  0.06567  1.0000
  C   C336      1.0  0.49720  0.01459  0.16390  1.0000
  H   H584      1.0  0.53023  0.05520  0.43882  1.0000
  H   H585      1.0  0.58343  0.14854  0.34380  1.0000
  C   C337      1.0  0.67032  0.24981  0.43984  1.0000
  C   C338      1.0  0.96705  0.22032  0.26311  1.0000
  H   H586      1.0  0.94525  0.23194  0.24972  1.0000
  H   H587      1.0  0.49886  0.23844  0.47565  1.0000
  H   H588      1.0  0.88748  0.14525  0.26798  1.0000
  H   H589      1.0  0.95837  0.21350  0.29105  1.0000
  C   C339      1.0  0.70817  0.17962  0.06816  1.0000
  H   H590      1.0  0.68992  0.25073  0.41866  1.0000
  H   H591      1.0  0.67936  0.06755  0.34048  1.0000
  H   H592      1.0  0.72051  0.08483  0.27258  1.0000
  H   H593      1.0  0.57839  0.02887  0.22259  1.0000
  H   H594      1.0  0.70253  0.22878  0.48011  1.0000
  C   C340      1.0  0.61162  0.10413  0.33149  1.0000
  C   C341      1.0  0.58409  0.12198  0.35213  1.0000
  H   H595      1.0  0.90833  0.19453  0.23324  1.0000
  C   C342      1.0  0.51696  0.21944  0.42484  1.0000
  H   H596      1.0  0.92139  0.16747  0.19680  1.0000
  H   H597      1.0  0.74270  0.04623  0.26858  1.0000
  H   H598      1.0  0.90060  0.11838  0.23077  1.0000
  H   H599      1.0  0.85476  0.05387  0.07946  1.0000
  H   H600      1.0  0.51675  0.19636  0.40812  1.0000
  H   H601      1.0  0.52948  0.07084  0.39216  1.0000
  H   H602      1.0  0.97270  0.26921  0.31763  1.0000
  H   H603      1.0  0.81556  0.05824  0.10187  1.0000
  Fe  Fe39      1.0  0.95257  0.31660  0.09320  1.0000
  H   H604      1.0  0.82929  0.21995  0.03369  1.0000
  N   N18       1.0  0.63461  0.04520  0.31890  1.0000
  C   C343      1.0  0.91829  0.16952  0.22693  1.0000
  H   H605      1.0  0.75971  0.18768  0.06325  1.0000
  N   N19       1.0  0.78018  0.12870  0.02359  1.0000
  C   C344      1.0  0.53743  0.04994  0.41003  1.0000
  H   H606      1.0  0.68388  0.03398  0.26416  1.0000
  C   C345      1.0  0.80577  0.15546  0.01686  1.0000
  H   H607      1.0  0.73777  0.06536  0.31302  1.0000
  H   H608      1.0  0.49816  0.03662  0.14555  1.0000
  H   H609      1.0  0.70096  0.01777  0.30620  1.0000
  H   H610      1.0  0.81181  0.06143  0.03304  1.0000
  C   C346      1.0  0.50060  0.11520  0.45757  1.0000
  H   H611      1.0  0.86307  0.19394  0.01840  1.0000
  H   H612      1.0  0.73936  0.16013  0.00695  1.0000
  H   H613      1.0  0.53105  0.01220  0.36909  1.0000
  H   H614      1.0  0.96552  0.18960  0.12764  1.0000
  C   C347      1.0  0.49765  0.21462  0.46039  1.0000
  H   H615      1.0  0.95858  0.21094  0.19144  1.0000
  C   C348      1.0  0.98146  0.19907  0.20214  1.0000
  H   H616      1.0  0.50617  0.23996  0.40832  1.0000
  N   N20       1.0  0.97760  0.18979  0.24201  1.0000
  C   C349      1.0  0.71003  0.00606  0.00776  1.0000
  H   H617      1.0  0.97384  0.14896  0.17809  1.0000
  H   H618      1.0  0.51070  0.19548  0.47681  1.0000
  H   H619      1.0  0.79411  0.17741  0.00347  1.0000
  C   C350      1.0  0.55651  0.13147  0.50074  1.0000
  H   H620      1.0  0.64048  0.23128  0.50089  1.0000
  Fe  Fe40      1.0  0.61786  0.17476  0.65726  1.0000
  S   S77       1.0  0.63814  0.13245  0.62343  1.0000
  S   S78       1.0  0.64360  0.22336  0.67476  1.0000
  Fe  Fe41      1.0  0.54727  0.14473  0.65693  1.0000
  S   S79       1.0  0.56317  0.10139  0.62267  1.0000
  C   C351      1.0  0.84755  0.30381  0.77204  1.0000
  Fe  Fe42      1.0  0.60751  0.09939  0.66018  1.0000
  S   S80       1.0  0.61412  0.04672  0.68206  1.0000
  Fe  Fe43      1.0  0.59174  0.13796  0.58931  1.0000
  S   S81       1.0  0.59202  0.14181  0.52685  1.0000
  S   S82       1.0  0.58985  0.14118  0.69644  1.0000
  S   S83       1.0  0.57325  0.18179  0.62096  1.0000
  C   C352      1.0  0.72174  0.00343  0.97154  1.0000
  S   S84       1.0  0.78661  0.28683  0.64608  1.0000
  H   H621      1.0  0.82458  0.14678  0.99682  1.0000
  H   H622      1.0  0.70654  0.19469  0.65017  1.0000
  H   H623      1.0  0.64074  0.07925  0.95941  1.0000
  H   H624      1.0  0.52996  0.10944  0.54555  1.0000
  C   C353      1.0  0.64531  0.02776  0.70876  1.0000
  C   C354      1.0  0.67793  0.03899  0.70899  1.0000
  H   H625      1.0  0.95136  0.32185  0.85895  1.0000
  N   N21       1.0  0.67091  0.24557  0.54725  1.0000
  C   C355      1.0  0.58965  0.26978  0.59913  1.0000
  H   H626      1.0  0.73650  0.02328  0.96023  1.0000
  H   H627      1.0  0.68448  0.06121  0.69398  1.0000
  C   C356      1.0  0.69133  0.27485  0.56036  1.0000
  C   C357      1.0  0.50027  0.02988  0.70562  1.0000
  H   H628      1.0  0.57302  0.25221  0.58451  1.0000
  H   H629      1.0  0.72340  0.31589  0.67010  1.0000
  H   H630      1.0  0.94856  0.28592  0.73982  1.0000
  C   C358      1.0  0.64159  0.05136  0.81883  1.0000
  H   H631      1.0  0.74862  0.02635  0.87745  1.0000
  C   C359      1.0  0.74644  0.27004  0.65404  1.0000
  H   H632      1.0  0.65622  0.08631  0.87359  1.0000
  H   H633      1.0  0.60401  0.02569  0.58670  1.0000
  H   H634      1.0  0.60925  0.07463  0.75638  1.0000
  C   C360      1.0  0.71985  0.28955  0.66552  1.0000
  C   C361      1.0  0.68868  0.27483  0.67172  1.0000
  C   C362      1.0  0.68346  0.24054  0.66610  1.0000
  C   C363      1.0  0.70994  0.22112  0.65423  1.0000
  C   C364      1.0  0.71139  0.04191  0.83763  1.0000
  H   H635      1.0  0.66848  0.29013  0.68111  1.0000
  H   H636      1.0  0.74802  0.00231  0.83545  1.0000
  H   H637      1.0  0.76152  0.22033  0.63968  1.0000
  C   C365      1.0  0.63721  0.99883  0.72828  1.0000
  H   H638      1.0  0.54339  0.04033  0.67262  1.0000
  H   H639      1.0  0.75637  0.07728  0.92522  1.0000
  C   C366      1.0  0.74117  0.23575  0.64840  1.0000
  H   H640      1.0  0.83443  0.29899  0.79821  1.0000
  H   H641      1.0  0.66348  0.18190  0.51214  1.0000
  H   H642      1.0  0.58797  0.04596  0.81205  1.0000
  H   H643      1.0  0.79491  0.09802  0.91524  1.0000
  H   H644      1.0  0.62286  0.22459  0.56003  1.0000
  H   H645      1.0  0.77212  0.30578  0.55792  1.0000
  C   C367      1.0  0.74490  0.30780  0.56034  1.0000
  C   C368      1.0  0.76829  0.10184  0.92089  1.0000
  C   C369      1.0  0.49022  0.12222  0.73679  1.0000
  C   C370      1.0  0.65925  0.25043  0.50824  1.0000
  H   H646      1.0  0.68944  0.27736  0.59079  1.0000
  C   C371      1.0  0.62089  0.27596  0.57687  1.0000
  C   C372      1.0  0.69401  0.15095  0.54592  1.0000
  H   H647      1.0  0.85599  0.27964  0.76067  1.0000
  H   H648      1.0  0.59988  0.08115  0.83992  1.0000
  H   H649      1.0  0.89300  0.31388  0.79919  1.0000
  N   N22       1.0  0.64995  0.03523  0.85520  1.0000
  S   S85       1.0  0.49197  0.14928  0.66678  1.0000
  C   C373      1.0  0.69007  0.21369  0.55195  1.0000
  H   H650      1.0  0.70268  0.14895  0.57481  1.0000
  H   H651      1.0  0.67991  0.12806  0.53901  1.0000
  H   H652      1.0  0.64749  0.23396  0.59894  1.0000
  C   C374      1.0  0.68320  0.01888  0.85111  1.0000
  H   H653      1.0  0.76130  0.08514  0.99530  1.0000
  H   H654      1.0  0.66957  0.03129  0.93084  1.0000
  H   H655      1.0  0.68136  0.29845  0.54884  1.0000
  H   H656      1.0  0.50511  0.00294  0.70323  1.0000
  H   H657      1.0  0.62003  0.11040  0.78404  1.0000
  H   H658      1.0  0.64999  0.17738  0.55896  1.0000
  H   H659      1.0  0.55066  0.04056  0.72157  1.0000
  H   H660      1.0  0.59936  0.01981  0.86412  1.0000
  H   H661      1.0  0.57631  0.29357  0.60329  1.0000
  H   H662      1.0  0.76482  0.04378  0.83560  1.0000
  H   H663      1.0  0.65917  0.07189  0.81280  1.0000
  C   C375      1.0  0.77737  0.10702  0.98973  1.0000
  H   H664      1.0  0.71333  0.21400  0.53616  1.0000
  H   H665      1.0  0.69796  0.21112  0.58112  1.0000
  C   C376      1.0  0.67256  0.05618  0.91857  1.0000
  C   C377      1.0  0.60638  0.06622  0.81538  1.0000
  H   H666      1.0  0.51685  0.12307  0.73644  1.0000
  H   H667      1.0  0.74086  0.25573  0.57218  1.0000
  C   C378      1.0  0.67173  0.18127  0.54119  1.0000
  H   H668      1.0  0.57755  0.09793  0.77923  1.0000
  C   C379      1.0  0.64943  0.06153  0.88497  1.0000
  C   C380      1.0  0.52946  0.11553  0.51665  1.0000
  H   H669      1.0  0.73683  0.12851  0.95736  1.0000
  H   H670      1.0  0.69118  0.00698  0.87707  1.0000
  H   H671      1.0  0.52983  0.07498  0.70006  1.0000
  H   H672      1.0  0.73526  0.26625  0.52499  1.0000
  H   H673      1.0  0.59593  0.25943  0.62655  1.0000
  H   H674      1.0  0.68165  0.99805  0.83098  1.0000
  H   H675      1.0  0.62389  0.06471  0.89551  1.0000
  C   C381      1.0  0.60325  0.08865  0.78171  1.0000
  H   H676      1.0  0.70993  0.04442  0.80726  1.0000
  H   H677      1.0  0.70960  0.06720  0.84959  1.0000
  C   C382      1.0  0.74525  0.02765  0.84721  1.0000
  H   H678      1.0  0.71563  0.15260  0.52742  1.0000
  H   H679      1.0  0.77629  0.14808  0.94951  1.0000
  C   C383      1.0  0.66616  0.08192  0.94858  1.0000
  H   H680      1.0  0.64462  0.03321  0.79597  1.0000
  H   H681      1.0  0.72779  0.02884  0.72687  1.0000
  C   C384      1.0  0.53297  0.04760  0.69958  1.0000
  H   H682      1.0  0.80184  0.09654  0.98239  1.0000
  C   C385      1.0  0.62435  0.00868  0.86222  1.0000
  C   C386      1.0  0.64061  0.24321  0.57121  1.0000
  H   H683      1.0  0.75683  0.11378  0.89650  1.0000
  C   C387      1.0  0.70244  0.02049  0.72744  1.0000
  C   C388      1.0  0.76372  0.12402  0.95461  1.0000
  H   H684      1.0  0.61326  0.28698  0.55033  1.0000
  C   C389      1.0  0.72906  0.27386  0.55325  1.0000
  H   H685      1.0  0.68371  0.07802  0.97165  1.0000
  H   H686      1.0  0.69873  0.05868  0.91050  1.0000
  C   C390      1.0  0.96033  0.30555  0.72438  1.0000
  H   H687      1.0  0.66965  0.10751  0.93785  1.0000
  H   H688      1.0  0.63576  0.29461  0.59217  1.0000
  H   H689      1.0  0.49201  0.03563  0.73398  1.0000
  H   H690      1.0  0.83002  0.31503  0.75213  1.0000
  C   C391      1.0  0.94227  0.32279  0.69739  1.0000
  H   H691      1.0  0.73919  0.31670  0.58850  1.0000
  H   H692      1.0  0.91681  0.31634  0.69204  1.0000
  C   C392      1.0  0.59712  0.99911  0.58318  1.0000
  H   H693      1.0  0.57270  0.99794  0.56933  1.0000
  H   H694      1.0  0.62413  0.00408  0.92223  1.0000
  H   H695      1.0  0.57761  0.99659  0.63728  1.0000
  H   H696      1.0  0.64613  0.27452  0.50544  1.0000
  Fe  Fe44      1.0  0.86436  0.54369  0.38590  1.0000
  S   S86       1.0  0.81630  0.54570  0.35461  1.0000
  S   S87       1.0  0.88017  0.52282  0.44139  1.0000
  Fe  Fe45      1.0  0.90278  0.57742  0.32328  1.0000
  S   S88       1.0  0.85805  0.58194  0.28717  1.0000
  S   S89       1.0  0.95601  0.59176  0.31314  1.0000
  Fe  Fe46      1.0  0.83078  0.59812  0.33818  1.0000
  H   H697      1.0  0.76116  0.60547  0.43946  1.0000
  Fe  Fe47      1.0  0.84710  0.52960  0.30587  1.0000
  S   S90       1.0  0.83203  0.48959  0.26487  1.0000
  S   S91       1.0  0.87690  0.59671  0.37311  1.0000
  S   S92       1.0  0.89357  0.52434  0.33838  1.0000
  S   S93       1.0  0.93113  0.37452  0.21755  1.0000
  H   H698      1.0  0.92014  0.55286  0.21238  1.0000
  C   C393      1.0  0.94912  0.61547  0.24221  1.0000
  C   C394      1.0  0.97039  0.60882  0.27158  1.0000
  C   C395      1.0  0.91518  0.42806  0.39301  1.0000
  H   H699      1.0  0.59577  0.60738  0.47484  1.0000
  C   C396      1.0  0.62867  0.63678  0.44100  1.0000
  C   C397      1.0  0.74718  0.65505  0.30157  1.0000
  C   C398      1.0  0.90270  0.40599  0.22954  1.0000
  C   C399      1.0  0.91117  0.42749  0.25846  1.0000
  C   C400      1.0  0.88989  0.45321  0.26924  1.0000
  C   C401      1.0  0.85960  0.45760  0.25150  1.0000
  C   C402      1.0  0.85091  0.43585  0.22276  1.0000
  C   C403      1.0  0.87241  0.41018  0.21169  1.0000
  H   H700      1.0  0.93449  0.42432  0.27253  1.0000
  H   H701      1.0  0.89699  0.46956  0.29130  1.0000
  H   H702      1.0  0.82743  0.43888  0.20897  1.0000
  H   H703      1.0  0.86541  0.39351  0.18968  1.0000
  S   S94       1.0  0.80308  0.64771  0.34637  1.0000
  H   H704      1.0  0.68190  0.62556  0.39441  1.0000
  C   C404      1.0  0.74114  0.60992  0.41917  1.0000
  H   H705      1.0  0.92310  0.61022  0.24475  1.0000
  H   H706      1.0  0.77192  0.47054  0.32332  1.0000
  C   C405      1.0  0.94101  0.42345  0.12198  1.0000
  H   H707      1.0  0.81703  0.44800  0.40817  1.0000
  S   S95       1.0  0.98120  0.33996  0.13927  1.0000
  C   C406      1.0  0.82359  0.49152  0.46595  1.0000
  C   C407      1.0  0.85755  0.49590  0.47010  1.0000
  H   H708      1.0  0.89010  0.40681  0.12780  1.0000
  H   H709      1.0  0.75746  0.44235  0.35822  1.0000
  H   H710      1.0  0.81051  0.50475  0.44455  1.0000
  H   H711      1.0  0.83917  0.34624  0.30352  1.0000
  H   H712      1.0  0.92038  0.44973  0.16671  1.0000
  C   C408      1.0  0.86561  0.35289  0.30663  1.0000
  C   C409      1.0  0.93662  0.45640  0.14334  1.0000
  C   C410      1.0  0.61169  0.62975  0.47756  1.0000
  H   H713      1.0  0.89601  0.39139  0.32912  1.0000
  H   H714      1.0  0.64331  0.61448  0.43383  1.0000
  Fe  Fe48      1.0  0.93471  0.33527  0.17239  1.0000
  H   H715      1.0  0.80002  0.40928  0.39404  1.0000
  H   H716      1.0  0.87877  0.44446  0.35330  1.0000
  H   H717      1.0  0.92073  0.40209  0.38486  1.0000
  H   H718      1.0  0.91236  0.38773  0.09065  1.0000
  H   H719      1.0  0.80814  0.42173  0.32917  1.0000
  H   H720      1.0  0.87019  0.64568  0.25514  1.0000
  N   N23       1.0  0.85340  0.41199  0.39164  1.0000
  H   H721      1.0  0.66186  0.64811  0.33484  1.0000
  H   H722      1.0  0.91193  0.52923  0.25329  1.0000
  H   H723      1.0  0.82032  0.35142  0.49736  1.0000
  H   H724      1.0  0.94552  0.52239  0.15653  1.0000
  H   H725      1.0  0.87895  0.33217  0.32028  1.0000
  H   H726      1.0  0.93625  0.47717  0.38398  1.0000
  H   H727      1.0  0.95367  0.54088  0.24271  1.0000
  H   H728      1.0  0.93783  0.44980  0.34441  1.0000
  H   H729      1.0  0.94331  0.48164  0.22858  1.0000
  H   H730      1.0  0.60890  0.64055  0.42029  1.0000
  C   C411      1.0  0.64005  0.65484  0.35166  1.0000
  H   H731      1.0  0.80806  0.39562  0.45398  1.0000
  C   C412      1.0  0.86939  0.38507  0.32863  1.0000
  H   H732      1.0  0.96551  0.44353  0.38264  1.0000
  H   H733      1.0  0.82320  0.35985  0.42930  1.0000
  C   C413      1.0  0.83025  0.38030  0.44822  1.0000
  H   H734      1.0  0.72495  0.58764  0.41834  1.0000
  H   H735      1.0  0.75287  0.63086  0.29025  1.0000
  H   H736      1.0  0.95859  0.42580  0.09896  1.0000
  H   H737      1.0  0.96814  0.43616  0.19986  1.0000
  H   H738      1.0  0.85656  0.40495  0.31339  1.0000
  H   H739      1.0  0.94958  0.40390  0.14112  1.0000
  C   C414      1.0  0.93374  0.50055  0.20924  1.0000
  H   H740      1.0  0.90877  0.49308  0.19976  1.0000
  H   H741      1.0  0.92213  0.47384  0.12582  1.0000
  C   C415      1.0  0.90833  0.41141  0.10572  1.0000
  H   H742      1.0  0.87382  0.46144  0.39741  1.0000
  C   C416      1.0  0.85611  0.38092  0.36832  1.0000
  N   N24       1.0  0.96769  0.47326  0.15687  1.0000
  H   H743      1.0  0.85956  0.42510  0.44901  1.0000
  C   C417      1.0  0.95744  0.50489  0.17626  1.0000
  H   H744      1.0  0.91884  0.43025  0.42319  1.0000
  H   H745      1.0  0.89825  0.42995  0.08611  1.0000
  C   C418      1.0  0.96165  0.62888  0.20943  1.0000
  C   C419      1.0  0.87929  0.43772  0.38279  1.0000
  H   H746      1.0  0.82915  0.46031  0.34009  1.0000
  H   H747      1.0  0.88139  0.38890  0.43560  1.0000
  C   C420      1.0  0.98601  0.45131  0.18382  1.0000
  C   C421      1.0  0.85773  0.40243  0.43154  1.0000
  C   C422      1.0  0.94015  0.45112  0.37478  1.0000
  H   H748      1.0  0.63230  0.63234  0.36672  1.0000
  H   H749      1.0  0.59597  0.65110  0.48576  1.0000
  H   H750      1.0  0.83481  0.61155  0.21226  1.0000
  H   H751      1.0  0.87270  0.36237  0.38158  1.0000
  C   C423      1.0  0.81067  0.44201  0.34961  1.0000
  C   C424      1.0  0.77748  0.45992  0.35081  1.0000
  H   H752      1.0  0.94515  0.63402  0.18675  1.0000
  H   H753      1.0  0.83172  0.36827  0.36646  1.0000
  H   H754      1.0  0.77816  0.48059  0.37105  1.0000
  C   C425      1.0  0.81973  0.42761  0.38771  1.0000
  H   H755      1.0  0.75256  0.61339  0.39177  1.0000
  C   C426      1.0  0.92975  0.53295  0.23059  1.0000
  H   H756      1.0  0.78015  0.46678  0.48639  1.0000
  C   C427      1.0  0.80646  0.47009  0.48974  1.0000
  H   H757      1.0  0.86164  0.34682  0.48001  1.0000
  H   H758      1.0  0.84373  0.56928  0.49832  1.0000
  H   H759      1.0  0.87613  0.35626  0.27879  1.0000
  H   H760      1.0  0.80402  0.63240  0.18498  1.0000
  C   C428      1.0  0.81716  0.63264  0.21179  1.0000
  S   S96       1.0  0.95625  0.33633  0.03472  1.0000
  H   H761      1.0  0.79870  0.62918  0.23394  1.0000
  C   C429      1.0  0.69487  0.64909  0.40088  1.0000
  C   C430      1.0  0.72150  0.64079  0.43013  1.0000
  H   H762      1.0  0.97942  0.51816  0.18736  1.0000
  H   H763      1.0  0.93622  0.65383  0.35983  1.0000
  H   H764      1.0  0.70824  0.65573  0.37521  1.0000
  H   H765      1.0  0.71034  0.63587  0.45729  1.0000
  H   H766      1.0  0.97272  0.49625  0.10347  1.0000
  C   C431      1.0  0.84130  0.36480  0.48456  1.0000
  H   H767      1.0  0.89833  0.64581  0.30813  1.0000
  C   C432      1.0  0.87420  0.47883  0.49827  1.0000
  H   H768      1.0  0.60707  0.64280  0.30652  1.0000
  H   H769      1.0  0.63023  0.62497  0.49946  1.0000
  Fe  Fe49      1.0  0.82584  0.40750  0.68038  1.0000
  S   S97       1.0  0.85972  0.42168  0.63475  1.0000
  S   S98       1.0  0.81728  0.44365  0.72764  1.0000
  Fe  Fe50      1.0  0.94928  0.63752  0.85982  1.0000
  C   C433      1.0  0.86641  0.36096  0.79302  1.0000
  H   H770      1.0  0.85925  0.60569  0.60839  1.0000
  Fe  Fe51      1.0  0.87964  0.36993  0.64060  1.0000
  S   S99       1.0  0.93567  0.36933  0.64192  1.0000
  Fe  Fe52      1.0  0.82165  0.40013  0.59711  1.0000
  S   S100      1.0  0.80044  0.42630  0.54687  1.0000
  S   S101      1.0  0.84753  0.35653  0.68826  1.0000
  S   S102      1.0  0.78563  0.38905  0.64244  1.0000
  S   S103      1.0  0.97468  0.60689  0.81703  1.0000
  Fe  Fe53      1.0  0.92690  0.60876  0.78544  1.0000
  S   S104      1.0  0.91901  0.56286  0.74955  1.0000
  H   H771      1.0  0.97159  0.62060  0.99745  1.0000
  C   C434      1.0  0.95046  0.42768  0.72502  1.0000
  H   H772      1.0  0.80248  0.55226  0.54518  1.0000
  H   H773      1.0  0.89071  0.32862  0.75228  1.0000
  C   C435      1.0  0.84515  0.47711  0.73413  1.0000
  C   C436      1.0  0.87476  0.47825  0.71489  1.0000
  C   C437      1.0  0.89683  0.50471  0.72022  1.0000
  C   C438      1.0  0.88981  0.53036  0.74510  1.0000
  C   C439      1.0  0.86033  0.52921  0.76489  1.0000
  C   C440      1.0  0.83807  0.50258  0.75940  1.0000
  H   H774      1.0  0.88103  0.45836  0.69637  1.0000
  H   H775      1.0  0.91978  0.50499  0.70533  1.0000
  H   H776      1.0  0.85464  0.54881  0.78419  1.0000
  H   H777      1.0  0.81526  0.50179  0.77465  1.0000
  H   H778      1.0  0.94956  0.42456  0.78402  1.0000
  H   H779      1.0  0.86033  0.42876  0.79039  1.0000
  H   H780      1.0  0.87016  0.44406  0.54337  1.0000
  H   H781      1.0  0.85562  0.60420  0.52690  1.0000
  H   H782      1.0  0.88821  0.63299  0.65964  1.0000
  H   H783      1.0  0.87499  0.55978  0.56773  1.0000
  N   N25       1.0  0.84605  0.53253  0.60784  1.0000
  C   C441      1.0  0.85154  0.54576  0.56957  1.0000
  C   C442      1.0  0.87172  0.50634  0.61568  1.0000
  C   C443      1.0  0.81282  0.51537  0.60825  1.0000
  C   C444      1.0  0.84646  0.55931  0.63702  1.0000
  C   C445      1.0  0.80284  0.49837  0.64486  1.0000
  C   C446      1.0  0.90819  0.51759  0.61631  1.0000
  C   C447      1.0  0.93125  0.48767  0.61978  1.0000
  H   H784      1.0  0.86827  0.46321  0.87056  1.0000
  H   H785      1.0  0.85448  0.52477  0.54994  1.0000
  C   C448      1.0  0.82369  0.56800  0.55379  1.0000
  H   H786      1.0  0.86769  0.49523  0.64305  1.0000
  H   H787      1.0  0.86928  0.48564  0.59547  1.0000
  H   H788      1.0  0.81149  0.49617  0.58611  1.0000
  H   H789      1.0  0.85299  0.54827  0.66420  1.0000
  H   H790      1.0  0.89453  0.58241  0.62234  1.0000
  H   H791      1.0  0.80463  0.51584  0.66838  1.0000
  H   H792      1.0  0.81863  0.47666  0.65075  1.0000
  C   C449      1.0  0.82307  0.45303  0.51791  1.0000
  H   H793      1.0  0.91273  0.53369  0.64057  1.0000
  H   H794      1.0  0.97529  0.56513  0.88618  1.0000
  H   H795      1.0  0.95721  0.49633  0.62136  1.0000
  H   H796      1.0  0.85399  0.35551  0.81945  1.0000
  C   C450      1.0  0.87666  0.41814  0.81207  1.0000
  C   C451      1.0  0.87230  0.61107  0.66513  1.0000
  C   C452      1.0  0.93159  0.42536  0.76105  1.0000
  Fe  Fe54      1.0  0.81023  0.33898  0.64591  1.0000
  C   C453      1.0  0.90814  0.39481  0.76147  1.0000
  C   C454      1.0  0.76752  0.48525  0.64297  1.0000
  H   H797      1.0  0.96427  0.45147  0.72398  1.0000
  H   H798      1.0  0.84768  0.62005  0.67393  1.0000
  C   C455      1.0  0.86938  0.58971  0.63053  1.0000
  H   H799      1.0  0.88366  0.59660  0.68784  1.0000
  N   N26       1.0  0.89310  0.38680  0.79827  1.0000
  C   C456      1.0  0.96739  0.33942  0.84370  1.0000
  C   C457      1.0  0.84600  0.44891  0.86231  1.0000
  C   C458      1.0  0.95748  0.34751  0.67652  1.0000
  H   H800      1.0  0.83285  0.62658  0.90021  1.0000
  H   H801      1.0  0.92894  0.39722  0.84134  1.0000
  S   S105      1.0  0.89977  0.63519  0.83111  1.0000
  H   H802      1.0  0.88831  0.39993  0.74093  1.0000
  H   H803      1.0  0.82132  0.56989  0.64084  1.0000
  H   H804      1.0  0.92172  0.37325  0.75009  1.0000
  H   H805      1.0  0.73596  0.32638  0.54011  1.0000
  H   H806      1.0  0.83227  0.40134  0.84116  1.0000
  S   S106      1.0  0.95414  0.62903  0.92149  1.0000
  H   H807      1.0  0.92573  0.47322  0.64501  1.0000
  H   H808      1.0  0.74980  0.50597  0.63901  1.0000
  H   H809      1.0  0.95094  0.49786  0.91553  1.0000
  C   C459      1.0  0.87728  0.32653  0.77853  1.0000
  C   C460      1.0  0.94789  0.52449  0.90823  1.0000
  H   H810      1.0  0.86918  0.40116  0.86912  1.0000
  C   C461      1.0  0.85560  0.41475  0.84731  1.0000
  S   S107      1.0  0.84443  0.34919  0.59819  1.0000
  H   H811      1.0  0.89543  0.43759  0.81816  1.0000
  H   H812      1.0  0.76149  0.47234  0.66906  1.0000
  H   H813      1.0  0.81487  0.58617  0.57446  1.0000
  H   H814      1.0  0.97702  0.35864  0.86288  1.0000
  H   H815      1.0  0.91724  0.44864  0.76384  1.0000
  H   H816      1.0  0.91513  0.53103  0.59097  1.0000
  H   H817      1.0  0.83211  0.46321  0.84122  1.0000
  H   H818      1.0  0.83004  0.44583  0.88678  1.0000
  H   H819      1.0  0.79282  0.53347  0.60230  1.0000
  H   H820      1.0  0.76482  0.46711  0.62009  1.0000
  S   S108      1.0  0.93967  0.65627  0.75555  1.0000
  H   H821      1.0  0.84693  0.37080  0.77420  1.0000
  H   H822      1.0  0.92859  0.47101  0.59557  1.0000
  H   H823      1.0  0.96317  0.53967  0.68285  1.0000
  H   H824      1.0  0.96819  0.40689  0.72302  1.0000
  H   H825      1.0  0.93335  0.42664  0.70115  1.0000
  C   C462      1.0  0.91829  0.37553  0.82636  1.0000
  H   H826      1.0  0.96585  0.37203  0.79730  1.0000
  C   C463      1.0  0.85706  0.45740  0.52205  1.0000
  H   H827      1.0  0.92861  0.52649  0.88660  1.0000
  H   H828      1.0  0.94144  0.33561  0.79265  1.0000
  H   H829      1.0  0.90601  0.36039  0.84796  1.0000
  C   C464      1.0  0.94844  0.35552  0.81203  1.0000
  H   H830      1.0  0.93946  0.53860  0.93270  1.0000
  C   C465      1.0  0.83519  0.58692  0.51979  1.0000
  H   H831      1.0  0.98482  0.56392  0.71689  1.0000
  Fe  Fe55      1.0  0.98605  0.65516  0.78936  1.0000
  C   C466      1.0  0.98023  0.53891  0.89395  1.0000
  H   H832      1.0  0.96955  0.34958  0.95846  1.0000
  H   H833      1.0  0.84983  0.38429  0.50404  1.0000
  H   H834      1.0  0.81445  0.60166  0.50832  1.0000
  C   C467      1.0  0.83113  0.65315  0.89214  1.0000
  H   H835      1.0  0.83580  0.65506  0.86221  1.0000
  H   H836      1.0  0.90051  0.48211  0.50163  1.0000
  H   H837      1.0  0.98696  0.52527  0.86874  1.0000
  C   C468      1.0  0.98772  0.54914  0.69131  1.0000
  Fe  Fe56      1.0  0.56965  0.79052  0.30114  1.0000
  S   S109      1.0  0.57749  0.83235  0.34068  1.0000
  S   S110      1.0  0.51613  0.78198  0.28424  1.0000
  Fe  Fe57      1.0  0.64277  0.76839  0.30719  1.0000
  S   S111      1.0  0.65538  0.81005  0.34657  1.0000
  S   S112      1.0  0.67557  0.72551  0.28618  1.0000
  Fe  Fe58      1.0  0.60736  0.79711  0.37430  1.0000
  S   S113      1.0  0.60188  0.78856  0.43573  1.0000
  Fe  Fe59      1.0  0.62416  0.84238  0.30927  1.0000
  S   S114      1.0  0.62532  0.89750  0.29501  1.0000
  S   S115      1.0  0.59640  0.75390  0.33721  1.0000
  S   S116      1.0  0.61463  0.80190  0.26769  1.0000
  C   C469      1.0  0.52701  0.73576  0.41880  1.0000
  C   C470      1.0  0.49192  0.89752  0.08530  1.0000
  H   H838      1.0  0.57179  0.70820  0.42972  1.0000
  C   C471      1.0  0.61219  0.66402  0.32522  1.0000
  C   C472      1.0  0.60753  0.91464  0.16115  1.0000
  H   H839      1.0  0.93116  0.67376  0.29620  1.0000
  H   H840      1.0  0.81678  0.68574  0.21379  1.0000
  C   C473      1.0  0.65498  0.91934  0.26903  1.0000
  C   C474      1.0  0.68756  0.90849  0.26577  1.0000
  C   C475      1.0  0.71086  0.92836  0.24731  1.0000
  C   C476      1.0  0.70158  0.95877  0.23135  1.0000
  C   C477      1.0  0.66882  0.96913  0.23389  1.0000
  C   C478      1.0  0.64577  0.94969  0.25301  1.0000
  H   H841      1.0  0.69501  0.88527  0.27824  1.0000
  H   H842      1.0  0.73619  0.92019  0.24545  1.0000
  C   C479      1.0  0.79670  0.75998  0.26821  1.0000
  H   H843      1.0  0.62065  0.95817  0.25543  1.0000
  C   C480      1.0  0.56802  0.80548  0.45983  1.0000
  C   C481      1.0  0.54867  0.83065  0.44454  1.0000
  C   C482      1.0  0.54810  0.70453  0.41484  1.0000
  H   H844      1.0  0.81032  0.78304  0.27553  1.0000
  H   H845      1.0  0.55515  0.84102  0.41820  1.0000
  H   H846      1.0  0.54159  0.75677  0.40780  1.0000
  H   H847      1.0  0.72631  0.74244  0.34104  1.0000
  C   C483      1.0  0.58105  0.94221  0.16595  1.0000
  C   C484      1.0  0.91840  0.67389  0.35302  1.0000
  H   H848      1.0  0.62894  0.96823  0.39691  1.0000
  C   C485      1.0  0.49891  0.91008  0.12416  1.0000
  H   H849      1.0  0.53840  0.93137  0.24601  1.0000
  H   H850      1.0  0.50854  0.79922  0.39888  1.0000
  H   H851      1.0  0.49053  0.89073  0.14350  1.0000
  C   C486      1.0  0.49660  0.96960  0.29072  1.0000
  H   H852      1.0  0.93040  0.69823  0.35851  1.0000
  N   N27       1.0  0.87160  0.69879  0.26289  1.0000
  H   H853      1.0  0.54401  0.93519  0.10796  1.0000
  C   C487      1.0  0.52038  0.84191  0.46292  1.0000
  C   C488      1.0  0.64904  0.68422  0.37769  1.0000
  H   H854      1.0  0.79069  0.76022  0.23844  1.0000
  H   H855      1.0  0.54916  0.89407  0.12364  1.0000
  H   H856      1.0  0.53291  0.96972  0.20535  1.0000
  H   H857      1.0  0.68012  0.79253  0.43418  1.0000
  H   H858      1.0  0.70390  0.66210  0.26758  1.0000
  C   C489      1.0  0.61889  0.96071  0.36973  1.0000
  C   C490      1.0  0.69125  0.98006  0.02219  1.0000
  C   C491      1.0  0.71937  0.67287  0.28875  1.0000
  H   H859      1.0  0.77318  0.75967  0.28369  1.0000
  N   N28       1.0  0.54574  0.93047  0.16739  1.0000
  H   H860      1.0  0.77516  0.71120  0.36392  1.0000
  H   H861      1.0  0.51520  0.89506  0.19624  1.0000
  H   H862      1.0  0.89238  0.70406  0.20857  1.0000
  H   H863      1.0  0.71030  0.77295  0.40522  1.0000
  H   H864      1.0  0.63317  0.68900  0.44971  1.0000
  H   H865      1.0  0.49944  0.91627  0.06460  1.0000
  H   H866      1.0  0.97240  0.74810  0.22498  1.0000
  H   H867      1.0  0.82122  0.72955  0.30809  1.0000
  C   C492      1.0  0.90078  0.70087  0.23745  1.0000
  H   H868      1.0  0.61187  0.90166  0.18762  1.0000
  H   H869      1.0  0.62580  0.69635  0.38683  1.0000
  H   H870      1.0  0.54078  0.80368  0.21320  1.0000
  H   H871      1.0  0.71079  0.76573  0.45437  1.0000
  H   H872      1.0  0.86367  0.75185  0.26591  1.0000
  H   H873      1.0  0.89172  0.72257  0.31158  1.0000
  H   H874      1.0  0.65562  0.73861  0.44948  1.0000
  H   H875      1.0  0.91371  0.75399  0.23993  1.0000
  H   H876      1.0  0.86073  0.69290  0.32062  1.0000
  H   H877      1.0  0.84513  0.73281  0.22732  1.0000
  H   H878      1.0  0.63815  0.93883  0.11992  1.0000
  C   C493      1.0  0.54153  0.90257  0.19466  1.0000
  H   H879      1.0  0.49699  0.78458  0.35564  1.0000
  C   C494      1.0  0.49807  0.82146  0.18343  1.0000
  H   H880      1.0  0.80177  0.70715  0.27118  1.0000
  C   C495      1.0  0.69095  0.70717  0.41954  1.0000
  C   C496      1.0  0.85028  0.72903  0.25707  1.0000
  H   H881      1.0  0.65971  0.90974  0.14897  1.0000
  H   H882      1.0  0.53528  0.68265  0.42670  1.0000
  H   H883      1.0  0.70959  0.71158  0.39789  1.0000
  C   C497      1.0  0.51144  0.82848  0.49703  1.0000
  H   H884      1.0  0.60013  0.89570  0.14066  1.0000
  H   H885      1.0  0.58768  0.95658  0.19109  1.0000
  H   H886      1.0  0.50568  0.85786  0.37386  1.0000
  H   H887      1.0  0.65555  0.74565  0.40070  1.0000
  H   H888      1.0  0.89459  0.69273  0.04197  1.0000
  H   H889      1.0  0.88046  0.73500  0.03712  1.0000
  C   C498      1.0  0.75956  0.70024  0.34300  1.0000
  C   C499      1.0  0.76749  0.66862  0.32888  1.0000
  C   C500      1.0  0.64035  0.92924  0.14841  1.0000
  H   H890      1.0  0.64828  0.94989  0.16656  1.0000
  H   H891      1.0  0.63767  0.94563  0.35512  1.0000
  S   S117      1.0  0.73155  0.98388  0.20965  1.0000
  C   C501      1.0  0.54590  0.88055  0.25971  1.0000
  C   C502      1.0  0.49401  0.73237  0.39742  1.0000
  H   H892      1.0  0.51759  0.98176  0.12369  1.0000
  H   H893      1.0  0.57892  0.91633  0.23611  1.0000
  H   H894      1.0  0.49860  0.95076  0.18425  1.0000
  H   H895      1.0  0.56116  0.85896  0.25130  1.0000
  C   C503      1.0  0.88230  0.69785  0.30260  1.0000
  H   H896      1.0  0.85372  0.70064  0.02455  1.0000
  C   C504      1.0  0.73176  0.71802  0.33018  1.0000
  C   C505      1.0  0.71125  0.70435  0.30316  1.0000
  C   C506      1.0  0.55236  0.91023  0.23462  1.0000
  H   H897      1.0  0.50520  0.87383  0.08020  1.0000
  H   H898      1.0  0.59683  0.94485  0.37413  1.0000
  H   H899      1.0  0.55250  0.88720  0.28839  1.0000
  H   H900      1.0  0.49677  0.95972  0.42799  1.0000
  C   C507      1.0  0.81699  0.72922  0.27798  1.0000
  H   H901      1.0  0.55362  0.69975  0.38547  1.0000
  H   H902      1.0  0.58420  0.96021  0.14299  1.0000
  C   C508      1.0  0.53606  0.91767  0.12985  1.0000
  H   H903      1.0  0.93479  0.72914  0.27370  1.0000
  H   H904      1.0  0.51148  0.82507  0.15813  1.0000
  C   C509      1.0  0.92551  0.72954  0.24505  1.0000
  H   H905      1.0  0.49370  0.98303  0.26427  1.0000
  C   C510      1.0  0.90839  0.67114  0.31265  1.0000
  C   C511      1.0  0.95548  0.72685  0.21991  1.0000
  H   H906      1.0  0.66113  0.70279  0.35950  1.0000
  C   C512      1.0  0.52426  0.95928  0.17884  1.0000
  H   H907      1.0  0.91469  0.67706  0.23742  1.0000
  H   H908      1.0  0.50502  0.86059  0.45023  1.0000
  H   H909      1.0  0.52318  0.96920  0.29816  1.0000
  C   C513      1.0  0.69474  0.76949  0.42996  1.0000
  C   C514      1.0  0.67140  0.74000  0.42474  1.0000
  H   H910      1.0  0.55490  0.87987  0.18547  1.0000
  H   H911      1.0  0.94788  0.72722  0.19058  1.0000
  C   C515      1.0  0.51475  0.80937  0.21462  1.0000
  N   N29       1.0  0.67092  0.67652  0.41042  1.0000
  H   H912      1.0  0.70518  0.70357  0.44542  1.0000
  H   H913      1.0  0.68215  0.98168  0.05000  1.0000
  H   H914      1.0  0.52296  0.73986  0.44854  1.0000
  H   H915      1.0  0.96922  0.70348  0.22548  1.0000
  C   C516      1.0  0.49731  0.80266  0.24677  1.0000
  H   H916      1.0  0.50480  0.96114  0.36245  1.0000
  H   H917      1.0  0.51945  0.87342  0.25907  1.0000
  H   H918      1.0  0.61924  0.68573  0.30819  1.0000
  C   C517      1.0  0.87957  0.70977  0.02471  1.0000
  C   C518      1.0  0.55966  0.79269  0.49446  1.0000
  H   H919      1.0  0.89655  0.67115  0.37104  1.0000
  H   H920      1.0  0.66965  0.93183  0.01204  1.0000
  C   C519      1.0  0.85304  0.66717  0.25445  1.0000
  C   C520      1.0  0.52335  0.98937  0.15221  1.0000
  H   H921      1.0  0.58935  0.66994  0.34052  1.0000
  H   H922      1.0  0.83450  0.66184  0.27611  1.0000
  H   H923      1.0  0.66136  0.99222  0.22114  1.0000
  H   H924      1.0  0.50096  0.72827  0.36823  1.0000
  H   H925      1.0  0.49135  0.84135  0.33039  1.0000
  H   H926      1.0  0.85327  0.66792  0.19389  1.0000
  C   C521      1.0  0.83533  0.66568  0.21664  1.0000
  H   H927      1.0  0.59734  0.98212  0.32166  1.0000
  C   C522      1.0  0.60942  0.99129  0.34715  1.0000
  C   C523      1.0  0.65043  0.66826  0.44364  1.0000
  H   H928      1.0  0.73939  0.66159  0.43276  1.0000
  H   H929      1.0  0.66623  0.66626  0.46856  1.0000
  S   S118      1.0  0.96378  0.68581  0.83442  1.0000
  H   H930      1.0  0.52477  0.79355  0.53928  1.0000
  C   C524      1.0  0.61871  0.72248  0.82787  1.0000
  S   S119      1.0  0.52428  0.78775  0.67863  1.0000
  Fe  Fe60      1.0  0.72145  0.84952  0.82261  1.0000
  S   S120      1.0  0.67636  0.85144  0.85872  1.0000
  S   S121      1.0  0.74446  0.79699  0.82185  1.0000
  Fe  Fe61      1.0  0.71040  0.92176  0.79969  1.0000
  S   S122      1.0  0.66562  0.92789  0.83437  1.0000
  Fe  Fe62      1.0  0.69427  0.90148  0.87795  1.0000
  S   S123      1.0  0.68585  0.91292  0.93859  1.0000
  Fe  Fe63      1.0  0.65095  0.87796  0.81252  1.0000
  S   S124      1.0  0.59586  0.87424  0.80114  1.0000
  S   S125      1.0  0.74104  0.89826  0.84496  1.0000
  S   S126      1.0  0.69420  0.87307  0.77461  1.0000
  Fe  Fe64      1.0  0.91558  0.68279  0.80340  1.0000
  H   H931      1.0  0.67200  0.71640  0.82127  1.0000
  S   S127      1.0  0.88837  0.73308  0.80030  1.0000
  H   H932      1.0  0.72397  0.97327  0.92220  1.0000
  H   H933      1.0  0.91729  0.71936  0.88082  1.0000
  H   H934      1.0  0.70140  0.90569  0.64943  1.0000
  C   C525      1.0  0.69564  0.94923  0.96428  1.0000
  H   H935      1.0  0.55954  0.74740  0.81998  1.0000
  C   C526      1.0  0.53144  0.80412  0.51303  1.0000
  C   C527      1.0  0.78460  0.77981  0.81472  1.0000
  C   C528      1.0  0.78882  0.74507  0.81714  1.0000
  C   C529      1.0  0.82009  0.73021  0.81226  1.0000
  C   C530      1.0  0.84776  0.74994  0.80500  1.0000
  C   C531      1.0  0.84348  0.78463  0.80235  1.0000
  C   C532      1.0  0.81220  0.79948  0.80714  1.0000
  H   H936      1.0  0.76770  0.72953  0.82283  1.0000
  H   H937      1.0  0.82275  0.70353  0.81410  1.0000
  H   H938      1.0  0.86458  0.80023  0.79666  1.0000
  H   H939      1.0  0.80950  0.82617  0.80509  1.0000
  C   C533      1.0  0.54394  0.81434  0.71053  1.0000
  C   C534      1.0  0.57854  0.81544  0.71204  1.0000
  C   C535      1.0  0.59490  0.83461  0.73890  1.0000
  C   C536      1.0  0.57670  0.85161  0.76542  1.0000
  C   C537      1.0  0.54212  0.85042  0.76398  1.0000
  C   C538      1.0  0.52577  0.83231  0.73630  1.0000
  H   H940      1.0  0.59274  0.80132  0.69238  1.0000
  H   H941      1.0  0.62154  0.83565  0.73961  1.0000
  H   H942      1.0  0.52788  0.86358  0.78441  1.0000
  C   C539      1.0  0.65386  0.71827  0.84388  1.0000
  C   C540      1.0  0.56681  0.73099  0.76429  1.0000
  C   C541      1.0  0.61593  0.78428  0.83436  1.0000
  C   C542      1.0  0.62824  0.98806  0.89789  1.0000
  C   C543      1.0  0.87526  0.76765  0.90370  1.0000
  H   H943      1.0  0.64167  0.78626  0.84439  1.0000
  H   H944      1.0  0.80573  0.66204  0.89776  1.0000
  C   C544      1.0  0.66163  0.98029  0.74644  1.0000
  H   H945      1.0  0.87951  0.76030  0.97194  1.0000
  C   C545      1.0  0.94243  0.74718  0.92316  1.0000
  C   C546      1.0  0.83986  0.78217  0.90609  1.0000
  H   H946      1.0  0.50726  0.94353  0.72589  1.0000
  H   H947      1.0  0.66083  0.73906  0.86232  1.0000
  H   H948      1.0  0.98299  0.71684  0.90273  1.0000
  H   H949      1.0  0.60655  0.94547  0.92514  1.0000
  S   S128      1.0  0.72579  0.96721  0.76723  1.0000
  H   H950      1.0  0.56784  0.78004  0.78837  1.0000
  C   C547      1.0  0.89333  0.71038  0.98574  1.0000
  C   C548      1.0  0.59337  0.78516  0.86865  1.0000
  C   C549      1.0  0.91481  0.72264  0.91106  1.0000
  C   C550      1.0  0.60176  0.81471  0.89341  1.0000
  H   H951      1.0  0.68221  0.68352  0.87673  1.0000
  H   H952      1.0  0.57520  0.70521  0.76935  1.0000
  C   C551      1.0  0.52952  0.72986  0.75817  1.0000
  H   H953      1.0  0.60062  0.71789  0.85014  1.0000
  H   H954      1.0  0.82908  0.77846  0.93371  1.0000
  H   H955      1.0  0.51959  0.75530  0.75384  1.0000
  H   H956      1.0  0.52853  0.92875  0.76615  1.0000
  H   H957      1.0  0.82358  0.76999  0.88551  1.0000
  H   H958      1.0  0.66177  0.80419  0.78560  1.0000
  C   C552      1.0  0.57576  0.75456  0.79672  1.0000
  C   C553      1.0  0.85617  0.71024  0.90134  1.0000
  H   H959      1.0  0.67301  0.78620  0.72119  1.0000
  H   H960      1.0  0.86056  0.71044  0.87119  1.0000
  H   H961      1.0  0.70988  0.78999  0.74856  1.0000
  H   H962      1.0  0.56714  0.78796  0.86048  1.0000
  H   H963      1.0  0.59955  0.83846  0.87800  1.0000
  H   H964      1.0  0.93629  0.75993  0.94925  1.0000
  H   H965      1.0  0.89188  0.78601  0.91718  1.0000
  C   C554      1.0  0.87380  0.73506  0.96097  1.0000
  H   H966      1.0  0.63769  0.73428  0.76220  1.0000
  N   N30       1.0  0.88019  0.73345  0.92011  1.0000
  H   H967      1.0  0.94546  0.76664  0.90176  1.0000
  H   H968      1.0  0.91956  0.71798  0.98776  1.0000
  H   H969      1.0  0.85296  0.83344  0.91944  1.0000
  H   H970      1.0  0.59618  0.76230  0.88532  1.0000
  H   H971      1.0  0.85107  0.82448  0.87076  1.0000
  H   H972      1.0  0.61151  0.80772  0.81896  1.0000
  C   C555      1.0  0.83952  0.81942  0.89778  1.0000
  H   H973      1.0  0.69349  0.74934  0.73871  1.0000
  H   H974      1.0  0.65511  0.95753  0.76041  1.0000
  H   H975      1.0  0.52380  0.71484  0.73334  1.0000
  C   C556      1.0  0.66620  0.77745  0.77980  1.0000
  H   H976      1.0  0.60465  0.94327  0.87588  1.0000
  H   H977      1.0  0.61971  0.77353  0.75375  1.0000
  H   H978      1.0  0.62045  0.98488  0.63357  1.0000
  H   H979      1.0  0.83040  0.71877  0.90530  1.0000
  C   C557      1.0  0.85633  0.67355  0.91397  1.0000
  C   C558      1.0  0.63285  0.75893  0.77507  1.0000
  N   N31       1.0  0.61149  0.75498  0.80881  1.0000
  H   H980      1.0  0.54060  0.96775  0.74606  1.0000
  H   H981      1.0  0.58446  0.81555  0.91692  1.0000
  C   C559      1.0  0.68677  0.77552  0.74481  1.0000
  H   H982      1.0  0.62721  0.81237  0.90447  1.0000
  H   H983      1.0  0.57805  0.73974  0.73830  1.0000
  H   H984      1.0  0.61526  0.70134  0.80859  1.0000
  N   N32       1.0  0.58577  0.92544  0.65261  1.0000
  C   C560      1.0  0.58530  0.94539  0.61749  1.0000
  C   C561      1.0  0.57309  0.89050  0.64566  1.0000
  C   C562      1.0  0.56269  0.94234  0.67927  1.0000
  C   C563      1.0  0.61954  0.92463  0.67012  1.0000
  C   C564      1.0  0.64813  0.91115  0.64655  1.0000
  C   C565      1.0  0.69445  0.99083  0.74577  1.0000
  C   C566      1.0  0.55640  0.92372  0.71588  1.0000
  C   C567      1.0  0.58066  0.87465  0.60767  1.0000
  C   C568      1.0  0.57236  0.83758  0.60710  1.0000
  C   C569      1.0  0.68115  0.91615  0.66627  1.0000
  H   H985      1.0  0.57223  0.96728  0.68720  1.0000
  C   C570      1.0  0.53163  0.94225  0.73979  1.0000
  H   H986      1.0  0.56003  0.94488  0.60536  1.0000
  H   H987      1.0  0.60142  0.93414  0.59638  1.0000
  H   H988      1.0  0.58221  0.87331  0.66738  1.0000
  H   H989      1.0  0.54566  0.88969  0.64775  1.0000
  H   H990      1.0  0.53833  0.94671  0.66598  1.0000
  C   C571      1.0  0.60252  0.96029  0.89977  1.0000
  H   H991      1.0  0.62659  0.94978  0.67985  1.0000
  H   H992      1.0  0.61936  0.90892  0.69524  1.0000
  H   H993      1.0  0.64980  0.92402  0.61976  1.0000
  H   H994      1.0  0.64502  0.88404  0.64213  1.0000
  H   H995      1.0  0.81365  0.82844  0.89676  1.0000
  H   H996      1.0  0.68106  0.76730  0.80264  1.0000
  H   H997      1.0  0.57943  0.92136  0.73218  1.0000
  H   H998      1.0  0.54629  0.89858  0.71071  1.0000
  H   H999      1.0  0.56543  0.88680  0.58609  1.0000
  H   H1000     1.0  0.60683  0.87737  0.59990  1.0000
  H   H1001     1.0  0.57688  0.82729  0.57926  1.0000
  H   H1002     1.0  0.58797  0.82386  0.62706  1.0000
  H   H1003     1.0  0.54604  0.83345  0.61395  1.0000
  H   H1004     1.0  0.68614  0.94306  0.67071  1.0000
  H   H1005     1.0  0.68121  0.90339  0.69332  1.0000
  H   H1006     1.0  0.84904  0.67175  0.94318  1.0000
  H   H1007     1.0  0.92036  0.69769  0.92246  1.0000
  H   H1008     1.0  0.88233  0.76766  0.87412  1.0000
  C   C572      1.0  0.65661  0.68624  0.86623  1.0000
  C   C573      1.0  0.97559  0.72977  0.92828  1.0000
  H   H1009     1.0  0.89297  0.68463  0.97506  1.0000
  H   H1010     1.0  0.84701  0.73155  0.96641  1.0000
  H   H1011     1.0  0.61595  0.98701  0.56562  1.0000
  H   H1012     1.0  0.57724  0.97081  0.90045  1.0000
  H   H1013     1.0  0.88086  0.66196  0.91010  1.0000
  C   C574      1.0  0.71456  0.97519  0.94985  1.0000
  H   H1014     1.0  0.65279  0.97621  0.89994  1.0000
  H   H1015     1.0  0.51702  0.71842  0.78210  1.0000
  C   C575      1.0  0.59571  0.98241  0.62079  1.0000
  H   H1016     1.0  0.49913  0.83130  0.73568  1.0000
  H   H1017     1.0  0.61195  0.99037  0.72891  1.0000
  H   H1018     1.0  0.63965  0.68695  0.89008  1.0000
  C   C576      1.0  0.68415  0.95183  0.00055  1.0000
  H   H1019     1.0  0.65071  0.66425  0.84889  1.0000
  H   H1020     1.0  0.62345  0.99104  0.83856  1.0000
  H   H1021     1.0  0.97426  0.71137  0.95095  1.0000
  H   H1022     1.0  0.57466  0.77338  0.50663  1.0000
  H   H1023     1.0  0.49546  0.94326  0.59429  1.0000
  H   H1024     1.0  0.49942  0.99113  0.63515  1.0000
