data_image0
_chemical_formula_structural       HFeSFeSFeHFeS2H5C3HCNC5HSCH2CH4SH3C2H3C2H3C3HSHC2HC2H2CH2CH7NH2CH6C2HCHCH4CHCHSH2C2H2CHFeSFeS2CSHS2H2CFeS2FeHFe2S2CH5C3H2SHCH3C2H2CH2C3H2C2H2CH2C2HC4HFeCH8CNHCSHCH10CHCH6CH6FeHC2H4C4HNCH5C2H4C2H4CH2C3H4SH2NCH3C2NH2CH5CS2CHCHSFeS2FeS2FeHFeHS2H2CH3C2H4C2H3CH4CH3CHCHC3HCH7C2H2C2H3C2HCHNCHSHC2H2CH3C3HCHCH2CSHCH6C2HCH3CH7C2HC3HCH3SCH2CHCHSHSH4CH3C2H5C2NHCH5CHC2H2CHCH2FeS2FeS2FeSFeHS2HC3H4CH2C4H2CHCHC3H2CH3CH2C2HCH3NHCH2CHCH2SH2FeH2CHC2NHCHC3HCH6CHCHCH3CHCH5CH2SH2C4H2CHCHCH4C2NCHSCHC2H5C3H6C2H4C2HCH2CH6CNCSH3CHC2H2FeSFeHFeS2HCHSHSHFeSFeS2H2CHCH8C3H4CH2C3H2CHCHC3HC3H3C2H2SC2H2CHCSHSH2CHCHCH3FeHNCH3CH5CSH2CSH2C2H3C4HC2HCH6CH5C2FeCHFeH2SCHSFeSFeH2CHCHCH2CH2CH2CHCHCH4CHCFeCH3CSC4H4C3H4C2HCNC2HNH2SHCH2CH3CH4C2H2SCHFeCH3SHCHC2H8CH3CH7C2H2CH4CNCHCFeS2FeS2FeCFeCS2H4CHCSH2CHC3H4C2H4C4H2CHCHCHC2HSCH2CHCH9SCH7CHCHNC3NH2CH2CHNH8CH5CHCSCH6C2H2SHCHC3H3NC2H4CHC2HCH2C2H2C2H2CH6CHC2FeH2SFeSHFeSFeS2FeS2H2SHS2C2H8FeHCH2C2H2C4H2CH2C4H2CH2CH5C2H9SCH3CHFeH3CH6CHCNCH2CHCHC2H3C2H3CHC2HCFeH3C2NH4CHCH2CHCSCHCHC3H2C2HCHCSH2SFeSFeH8C2H5CHCHCH3CH4SH2CHC2HC2H5C5H3CFeHC2H7SHFeC3NCHCH2CH3CHC2HC2H7C3H5CH2CFeCFeSHCHS2HSH2CSCHCH2CH4C2H8CH6C2H2NC8SC3H16CH4CH3C2Fe2H3C2H9C2H2CH3CH13CH2C2HCH3C3HFeSFeSFeSFeHSHSHFeSFeSH3CSCH2C2H5SH2C3NH2C2SHCH2CHSCNSH3C2HCHCHC2HCHC2H2CHC2H2NHCSCH3CHC3H3CH4CH5CH2CH7FeHC2HSHCSCHCH5CH2CH3SC4H2C3HC3H3FeHSFeS2FeSFeCS2C3HC2HC2HCHCHCHC2HNC2H2CSC2HCHCH2C3H4CH3SH4C2H2CH2CH2CH3CHCH7CH2CH2SH4CH7C2HSNHSH2SCHCHC2H4CHCH2NC3HCHC3NHCH4C2HNH7C2HCHCH3C2H6CH7
_chemical_formula_sum              "H1024 Fe64 S128 C576 N32"
_cell_length_a       35.0201
_cell_length_b       35.4222
_cell_length_c       49.6291
_cell_angle_alpha    90.0209
_cell_angle_beta     90.0349
_cell_angle_gamma    90.2652

_space_group_name_H-M_alt    "P 1"
_space_group_IT_number       1

loop_
  _space_group_symop_operation_xyz
  'x, y, z'

loop_
  _atom_site_type_symbol
  _atom_site_label
  _atom_site_symmetry_multiplicity
  _atom_site_fract_x
  _atom_site_fract_y
  _atom_site_fract_z
  _atom_site_occupancy
  H   H1        1.0  0.32750  0.47726  0.26442  1.0000
  Fe  Fe1       1.0  0.09352  0.03843  0.11293  1.0000
  S   S1        1.0  0.15910  0.03096  0.11464  1.0000
  Fe  Fe2       1.0  0.03767  0.10459  0.10080  1.0000
  S   S2        1.0  0.03484  0.16588  0.08653  1.0000
  Fe  Fe3       1.0  0.02288  0.05286  0.14957  1.0000
  H   H2        1.0  0.22278  0.45042  0.26014  1.0000
  Fe  Fe4       1.0  0.01280  0.02306  0.09105  1.0000
  S   S3        1.0  0.07280  0.08868  0.13671  1.0000
  S   S4        1.0  0.06216  0.05752  0.07549  1.0000
  H   H3        1.0  0.26192  0.45687  0.22498  1.0000
  H   H4        1.0  0.05219  0.24813  0.18949  1.0000
  H   H5        1.0  0.15575  0.41231  0.31261  1.0000
  H   H6        1.0  0.41638  0.01826  0.07636  1.0000
  H   H7        1.0  0.02011  0.22918  0.16557  1.0000
  C   C1        1.0  0.30004  0.46233  0.26006  1.0000
  C   C2        1.0  0.20837  0.44086  0.30154  1.0000
  C   C3        1.0  0.17716  0.41154  0.29610  1.0000
  H   H8        1.0  0.27557  0.39706  0.31500  1.0000
  C   C4        1.0  0.99583  0.42472  0.22573  1.0000
  N   N1        1.0  0.99462  0.27070  0.19203  1.0000
  C   C5        1.0  0.45207  0.47604  0.01122  1.0000
  C   C6        1.0  0.30223  0.41380  0.31273  1.0000
  C   C7        1.0  0.99737  0.19870  0.09193  1.0000
  C   C8        1.0  0.99862  0.10825  0.00184  1.0000
  C   C9        1.0  0.35786  0.01337  0.03767  1.0000
  H   H9        1.0  0.03205  0.24614  0.07974  1.0000
  S   S5        1.0  0.44991  0.48346  0.04676  1.0000
  C   C10       1.0  0.28542  0.47550  0.23209  1.0000
  H   H10       1.0  0.04806  0.29936  0.27772  1.0000
  H   H11       1.0  0.30812  0.43222  0.25757  1.0000
  C   C11       1.0  0.35634  0.00525  0.06833  1.0000
  H   H12       1.0  0.24089  0.03287  0.11779  1.0000
  H   H13       1.0  0.38441  0.05780  0.08032  1.0000
  H   H14       1.0  0.32098  0.47173  0.30998  1.0000
  H   H15       1.0  0.01908  0.01148  0.01898  1.0000
  S   S6        1.0  0.04509  0.00114  0.12778  1.0000
  H   H16       1.0  0.19428  0.46875  0.30335  1.0000
  H   H17       1.0  0.32882  0.01482  0.07696  1.0000
  H   H18       1.0  0.01321  0.26194  0.27506  1.0000
  C   C12       1.0  0.00972  0.30579  0.17845  1.0000
  C   C13       1.0  0.99396  0.41481  0.25323  1.0000
  H   H19       1.0  0.99263  0.33097  0.18427  1.0000
  H   H20       1.0  0.16231  0.41763  0.27681  1.0000
  H   H21       1.0  0.03791  0.31758  0.23067  1.0000
  C   C14       1.0  0.29327  0.45637  0.30886  1.0000
  C   C15       1.0  0.01629  0.20281  0.20455  1.0000
  H   H22       1.0  0.32834  0.44465  0.20910  1.0000
  H   H23       1.0  0.31843  0.40236  0.29541  1.0000
  H   H24       1.0  0.07172  0.17841  0.19457  1.0000
  C   C16       1.0  0.99480  0.99595  0.01124  1.0000
  C   C17       1.0  0.38765  0.02692  0.08338  1.0000
  C   C18       1.0  0.04106  0.17024  0.19458  1.0000
  H   H25       1.0  0.40847  0.43288  0.01171  1.0000
  S   S7        1.0  0.00212  0.06869  0.19207  1.0000
  H   H26       1.0  0.24767  0.41201  0.27436  1.0000
  C   C19       1.0  0.06963  0.10018  0.01062  1.0000
  C   C20       1.0  0.23294  0.00404  0.11314  1.0000
  H   H27       1.0  0.01710  0.44489  0.21905  1.0000
  C   C21       1.0  0.01161  0.30443  0.14724  1.0000
  C   C22       1.0  0.02143  0.29028  0.26736  1.0000
  H   H28       1.0  0.02774  0.11299  0.04097  1.0000
  H   H29       1.0  0.18947  0.38272  0.29537  1.0000
  C   C23       1.0  0.99979  0.48734  0.99965  1.0000
  H   H30       1.0  0.30634  0.48317  0.19124  1.0000
  H   H31       1.0  0.35180  0.04402  0.03501  1.0000
  C   C24       1.0  0.23844  0.44147  0.27855  1.0000
  H   H32       1.0  0.09376  0.10940  0.02364  1.0000
  H   H33       1.0  0.03851  0.15088  0.01799  1.0000
  H   H34       1.0  0.05116  0.26868  0.23290  1.0000
  H   H35       1.0  0.03737  0.14546  0.20807  1.0000
  H   H36       1.0  0.38817  0.00940  0.03149  1.0000
  H   H37       1.0  0.38570  0.02093  0.10527  1.0000
  H   H38       1.0  0.03920  0.31200  0.18560  1.0000
  N   N2        1.0  0.27255  0.46675  0.28325  1.0000
  H   H39       1.0  0.48307  0.01888  0.01605  1.0000
  H   H40       1.0  0.03309  0.33772  0.11378  1.0000
  C   C25       1.0  0.03311  0.12003  0.01958  1.0000
  H   H41       1.0  0.02660  0.27892  0.13995  1.0000
  H   H42       1.0  0.34826  0.02963  0.17405  1.0000
  H   H43       1.0  0.98627  0.19299  0.20423  1.0000
  H   H44       1.0  0.00006  0.07700  0.99977  1.0000
  H   H45       1.0  0.21438  0.01331  0.02630  1.0000
  H   H46       1.0  0.06333  0.33854  0.14312  1.0000
  C   C26       1.0  0.02205  0.23864  0.18694  1.0000
  C   C27       1.0  0.02795  0.28907  0.23691  1.0000
  H   H47       1.0  0.99861  0.31074  0.27248  1.0000
  C   C28       1.0  0.00401  0.23710  0.08632  1.0000
  H   H48       1.0  0.01355  0.42740  0.26755  1.0000
  C   C29       1.0  0.42786  0.44898  0.99918  1.0000
  H   H49       1.0  0.02423  0.49262  0.01248  1.0000
  H   H50       1.0  0.28390  0.02398  0.03313  1.0000
  H   H51       1.0  0.38887  0.00350  0.16189  1.0000
  H   H52       1.0  0.03250  0.16161  0.17389  1.0000
  C   C30       1.0  0.03319  0.33864  0.13615  1.0000
  H   H53       1.0  0.02427  0.20851  0.22582  1.0000
  C   C31       1.0  0.31738  0.47390  0.21114  1.0000
  H   H54       1.0  0.22145  0.43394  0.32121  1.0000
  S   S8        1.0  0.98689  0.07139  0.11433  1.0000
  H   H55       1.0  0.06651  0.06906  0.01252  1.0000
  H   H56       1.0  0.47034  0.40296  0.06750  1.0000
  C   C32       1.0  0.99056  0.27857  0.22178  1.0000
  C   C33       1.0  0.35731  0.00295  0.16422  1.0000
  H   H57       1.0  0.01945  0.36527  0.14279  1.0000
  H   H58       1.0  0.34429  0.00112  0.14385  1.0000
  C   C34       1.0  0.47707  0.99578  0.00241  1.0000
  H   H59       1.0  0.34133  0.49292  0.21700  1.0000
  Fe  Fe5       1.0  0.01152  0.32975  0.38146  1.0000
  S   S9        1.0  0.01103  0.26684  0.39255  1.0000
  Fe  Fe6       1.0  0.06878  0.39511  0.36975  1.0000
  S   S10       1.0  0.02119  0.43469  0.35793  1.0000
  S   S11       1.0  0.13380  0.40541  0.37412  1.0000
  C   C35       1.0  0.34695  0.16527  0.53624  1.0000
  S   S12       1.0  0.44819  0.48847  0.40992  1.0000
  H   H60       1.0  0.03949  0.47299  0.42638  1.0000
  S   S13       1.0  0.03906  0.37475  0.40749  1.0000
  S   S14       1.0  0.04482  0.34702  0.34468  1.0000
  H   H61       1.0  0.08517  0.47805  0.41228  1.0000
  H   H62       1.0  0.19345  0.07907  0.55446  1.0000
  C   C36       1.0  0.00651  0.09754  0.48093  1.0000
  Fe  Fe7       1.0  0.39464  0.10461  0.60264  1.0000
  S   S15       1.0  0.45145  0.07662  0.60588  1.0000
  S   S16       1.0  0.38700  0.16861  0.60439  1.0000
  Fe  Fe8       1.0  0.35112  0.02899  0.60383  1.0000
  H   H63       1.0  0.01683  0.12367  0.52033  1.0000
  Fe  Fe9       1.0  0.42448  0.04065  0.63795  1.0000
  Fe  Fe10      1.0  0.42928  0.03431  0.57565  1.0000
  S   S17       1.0  0.36791  0.07068  0.63634  1.0000
  S   S18       1.0  0.37401  0.06523  0.56987  1.0000
  C   C37       1.0  0.46692  0.47327  0.50216  1.0000
  H   H64       1.0  0.37167  0.15366  0.54748  1.0000
  H   H65       1.0  0.24072  0.18185  0.53961  1.0000
  H   H66       1.0  0.04941  0.12362  0.43778  1.0000
  H   H67       1.0  0.18359  0.01758  0.65446  1.0000
  H   H68       1.0  0.18048  0.20449  0.56039  1.0000
  C   C38       1.0  0.44760  0.26641  0.59423  1.0000
  C   C39       1.0  0.41901  0.23983  0.60111  1.0000
  C   C40       1.0  0.42317  0.20134  0.59471  1.0000
  H   H69       1.0  0.44413  0.29590  0.59936  1.0000
  H   H70       1.0  0.39372  0.24916  0.61164  1.0000
  S   S19       1.0  0.47164  0.46609  0.53783  1.0000
  H   H71       1.0  0.28912  0.08738  0.65508  1.0000
  C   C41       1.0  0.45603  0.18976  0.58107  1.0000
  H   H72       1.0  0.32079  0.11087  0.53264  1.0000
  H   H73       1.0  0.05585  0.43922  0.46581  1.0000
  H   H74       1.0  0.01330  0.18701  0.38315  1.0000
  C   C42       1.0  0.48048  0.25478  0.58054  1.0000
  C   C43       1.0  0.31211  0.13950  0.53939  1.0000
  H   H75       1.0  0.37629  0.43385  0.56978  1.0000
  H   H76       1.0  0.19111  0.01111  0.54279  1.0000
  C   C44       1.0  0.01048  0.08205  0.42184  1.0000
  H   H77       1.0  0.20129  0.13026  0.58120  1.0000
  H   H78       1.0  0.42313  0.40139  0.41180  1.0000
  C   C45       1.0  0.16853  0.44240  0.37121  1.0000
  C   C46       1.0  0.18028  0.18136  0.54525  1.0000
  C   C47       1.0  0.21775  0.02771  0.53970  1.0000
  H   H79       1.0  0.09534  0.45214  0.48651  1.0000
  H   H80       1.0  0.34075  0.19413  0.54376  1.0000
  C   C48       1.0  0.37465  0.42865  0.54773  1.0000
  C   C49       1.0  0.02285  0.23634  0.46803  1.0000
  H   H81       1.0  0.46608  0.16064  0.63345  1.0000
  H   H82       1.0  0.14187  0.43489  0.45237  1.0000
  C   C50       1.0  0.39595  0.38482  0.51013  1.0000
  H   H83       1.0  0.01969  0.05285  0.52584  1.0000
  H   H84       1.0  0.38195  0.33759  0.46762  1.0000
  C   C51       1.0  0.41703  0.38365  0.45335  1.0000
  C   C52       1.0  0.39614  0.39242  0.54086  1.0000
  H   H85       1.0  0.02183  0.26041  0.45368  1.0000
  C   C53       1.0  0.42049  0.37462  0.42336  1.0000
  C   C54       1.0  0.01448  0.16512  0.47231  1.0000
  C   C55       1.0  0.46175  0.36061  0.50627  1.0000
  C   C56       1.0  0.25624  0.08405  0.55622  1.0000
  H   H86       1.0  0.37598  0.31281  0.51226  1.0000
  Fe  Fe11      1.0  0.99073  0.41237  0.39498  1.0000
  C   C57       1.0  0.41193  0.34743  0.47066  1.0000
  H   H87       1.0  0.12786  0.36649  0.44925  1.0000
  H   H88       1.0  0.36561  0.38082  0.50389  1.0000
  H   H89       1.0  0.10451  0.42402  0.42835  1.0000
  H   H90       1.0  0.21391  0.40739  0.38639  1.0000
  H   H91       1.0  0.46729  0.39153  0.50615  1.0000
  H   H92       1.0  0.41181  0.32048  0.53726  1.0000
  H   H93       1.0  0.42582  0.39553  0.54807  1.0000
  H   H94       1.0  0.42887  0.27451  0.48628  1.0000
  C   C58       1.0  0.42809  0.27997  0.50823  1.0000
  N   N3        1.0  0.42013  0.35224  0.50037  1.0000
  H   H95       1.0  0.38189  0.36928  0.55211  1.0000
  C   C59       1.0  0.11180  0.42553  0.45002  1.0000
  S   S20       1.0  0.47494  0.38637  0.59146  1.0000
  H   H96       1.0  0.42516  0.22016  0.51770  1.0000
  C   C60       1.0  0.23544  0.46294  0.37637  1.0000
  H   H97       1.0  0.05223  0.23457  0.47635  1.0000
  H   H98       1.0  0.35503  0.16713  0.51464  1.0000
  H   H99       1.0  0.39477  0.35917  0.41615  1.0000
  H   H100      1.0  0.21506  0.04974  0.57971  1.0000
  H   H101      1.0  0.25582  0.15610  0.62562  1.0000
  H   H102      1.0  0.98908  0.41243  0.46761  1.0000
  H   H103      1.0  0.06459  0.08047  0.39996  1.0000
  H   H104      1.0  0.21866  0.03757  0.51848  1.0000
  H   H105      1.0  0.02809  0.04942  0.38705  1.0000
  H   H106      1.0  0.24094  0.10498  0.65795  1.0000
  C   C61       1.0  0.40826  0.24612  0.52135  1.0000
  H   H107      1.0  0.26441  0.45676  0.38242  1.0000
  C   C62       1.0  0.20661  0.43502  0.37873  1.0000
  H   H108      1.0  0.44637  0.35746  0.41946  1.0000
  H   H109      1.0  0.40586  0.25023  0.54346  1.0000
  H   H110      1.0  0.47781  0.30043  0.64973  1.0000
  H   H111      1.0  0.07970  0.37452  0.46049  1.0000
  H   H112      1.0  0.03773  0.09146  0.48093  1.0000
  H   H113      1.0  0.23472  0.09018  0.60941  1.0000
  C   C63       1.0  0.40726  0.31719  0.51520  1.0000
  H   H114      1.0  0.04510  0.16112  0.47776  1.0000
  H   H115      1.0  0.24244  0.00882  0.54349  1.0000
  H   H116      1.0  0.25763  0.09255  0.53476  1.0000
  H   H117      1.0  0.39198  0.40249  0.45592  1.0000
  H   H118      1.0  0.28975  0.14960  0.52548  1.0000
  H   H119      1.0  0.30438  0.14040  0.62313  1.0000
  Fe  Fe12      1.0  0.99507  0.38507  0.33561  1.0000
  H   H120      1.0  0.28350  0.07846  0.60446  1.0000
  C   C64       1.0  0.21853  0.06120  0.55913  1.0000
  C   C65       1.0  0.29819  0.13805  0.56913  1.0000
  H   H121      1.0  0.41617  0.19084  0.65788  1.0000
  H   H122      1.0  0.28056  0.06417  0.55903  1.0000
  H   H123      1.0  0.05372  0.48428  0.51188  1.0000
  H   H124      1.0  0.34417  0.42621  0.54180  1.0000
  C   C66       1.0  0.01225  0.19990  0.45325  1.0000
  C   C67       1.0  0.15966  0.47837  0.36143  1.0000
  C   C68       1.0  0.22756  0.14413  0.57323  1.0000
  C   C69       1.0  0.03352  0.07780  0.39586  1.0000
  H   H125      1.0  0.32207  0.12457  0.58027  1.0000
  N   N4        1.0  0.26100  0.11752  0.57486  1.0000
  C   C70       1.0  0.26278  0.10225  0.60332  1.0000
  H   H126      1.0  0.01923  0.05872  0.43533  1.0000
  H   H127      1.0  0.11944  0.38492  0.48262  1.0000
  H   H128      1.0  0.40569  0.41172  0.50066  1.0000
  H   H129      1.0  0.15659  0.16142  0.54990  1.0000
  H   H130      1.0  0.29712  0.16748  0.57705  1.0000
  C   C71       1.0  0.27435  0.13088  0.62570  1.0000
  C   C72       1.0  0.21855  0.16076  0.54514  1.0000
  H   H131      1.0  0.17495  0.19387  0.52508  1.0000
  H   H132      1.0  0.21694  0.13868  0.52936  1.0000
  H   H133      1.0  0.23220  0.16892  0.58657  1.0000
  H   H134      1.0  0.45773  0.28098  0.51624  1.0000
  C   C73       1.0  0.08481  0.45243  0.46539  1.0000
  C   C74       1.0  0.10945  0.38547  0.46139  1.0000
  H   H135      1.0  0.42967  0.32491  0.46166  1.0000
  H   H136      1.0  0.38763  0.45330  0.53732  1.0000
  H   H137      1.0  0.37928  0.24207  0.51271  1.0000
  H   H138      1.0  0.44273  0.39969  0.45957  1.0000
  C   C75       1.0  0.19477  0.00213  0.63743  1.0000
  H   H139      1.0  0.14926  0.48038  0.42329  1.0000
  H   H140      1.0  0.03258  0.19684  0.43622  1.0000
  C   C76       1.0  0.45527  0.48448  0.44563  1.0000
  C   C77       1.0  0.01790  0.12090  0.43501  1.0000
  C   C78       1.0  0.27104  0.11297  0.65364  1.0000
  H   H141      1.0  0.33028  0.37650  0.34116  1.0000
  H   H142      1.0  0.02495  0.09945  0.38085  1.0000
  H   H143      1.0  0.00999  0.14215  0.41962  1.0000
  H   H144      1.0  0.13066  0.48458  0.35546  1.0000
  S   S21       1.0  0.47253  0.01484  0.54400  1.0000
  H   H145      1.0  0.45960  0.16033  0.57586  1.0000
  H   H146      1.0  0.98742  0.42514  0.51694  1.0000
  N   N5        1.0  0.99770  0.12882  0.46128  1.0000
  C   C79       1.0  0.23306  0.00816  0.62935  1.0000
  H   H147      1.0  0.31170  0.41901  0.35608  1.0000
  H   H148      1.0  0.25095  0.02788  0.64021  1.0000
  H   H149      1.0  0.46908  0.35177  0.52721  1.0000
  C   C80       1.0  0.99500  0.10527  0.51063  1.0000
  C   C81       1.0  0.32617  0.40726  0.33804  1.0000
  N   N6        1.0  0.08201  0.49236  0.45492  1.0000
  H   H150      1.0  0.47140  0.22862  0.64236  1.0000
  H   H151      1.0  0.00232  0.24202  0.48457  1.0000
  C   C82       1.0  0.06536  0.49142  0.42684  1.0000
  H   H152      1.0  0.99294  0.07055  0.47449  1.0000
  H   H153      1.0  0.35474  0.42065  0.33587  1.0000
  H   H154      1.0  0.27723  0.46603  0.32689  1.0000
  H   H155      1.0  0.48200  0.12819  0.65753  1.0000
  H   H156      1.0  0.99978  0.17332  0.49130  1.0000
  C   C83       1.0  0.99241  0.06869  0.52686  1.0000
  S   S22       1.0  0.29538  0.99645  0.59485  1.0000
  S   S23       1.0  0.40607  0.99610  0.60792  1.0000
  C   C84       1.0  0.43584  0.49446  0.49240  1.0000
  H   H157      1.0  0.98616  0.07517  0.54830  1.0000
  C   C85       1.0  0.48435  0.21636  0.57394  1.0000
  H   H158      1.0  0.39250  0.27011  0.90001  1.0000
  S   S24       1.0  0.45206  0.45802  0.78724  1.0000
  Fe  Fe13      1.0  0.35001  0.40984  0.85522  1.0000
  S   S25       1.0  0.39099  0.45897  0.85550  1.0000
  S   S26       1.0  0.28451  0.40943  0.85650  1.0000
  Fe  Fe14      1.0  0.41509  0.35182  0.85135  1.0000
  S   S27       1.0  0.46021  0.39699  0.85210  1.0000
  S   S28       1.0  0.42567  0.29033  0.83996  1.0000
  Fe  Fe15      1.0  0.42529  0.42428  0.88507  1.0000
  H   H159      1.0  0.43539  0.25968  0.67815  1.0000
  Fe  Fe16      1.0  0.42290  0.42803  0.82266  1.0000
  H   H160      1.0  0.28246  0.38406  0.94676  1.0000
  S   S29       1.0  0.38263  0.37626  0.88643  1.0000
  S   S30       1.0  0.37940  0.38164  0.82022  1.0000
  H   H161      1.0  0.38197  0.19615  0.91965  1.0000
  H   H162      1.0  0.35998  0.14981  0.66522  1.0000
  C   C86       1.0  0.43220  0.05814  0.74864  1.0000
  H   H163      1.0  0.42404  0.13699  0.70647  1.0000
  H   H164      1.0  0.40750  0.05963  0.70859  1.0000
  H   H165      1.0  0.48421  0.16544  0.84648  1.0000
  C   C87       1.0  0.45499  0.25661  0.85602  1.0000
  C   C88       1.0  0.46000  0.22139  0.84351  1.0000
  H   H166      1.0  0.33689  0.42285  0.96289  1.0000
  H   H167      1.0  0.44704  0.21606  0.82407  1.0000
  H   H168      1.0  0.48273  0.11697  0.70300  1.0000
  H   H169      1.0  0.40214  0.01813  0.94155  1.0000
  C   C89       1.0  0.43109  0.41459  0.74280  1.0000
  C   C90       1.0  0.43537  0.40198  0.71601  1.0000
  H   H170      1.0  0.41387  0.15356  0.94181  1.0000
  H   H171      1.0  0.40833  0.40357  0.75524  1.0000
  H   H172      1.0  0.15732  0.45138  0.80941  1.0000
  C   C91       1.0  0.25011  0.44597  0.85982  1.0000
  H   H173      1.0  0.28070  0.13345  0.66920  1.0000
  H   H174      1.0  0.30017  0.38754  0.91264  1.0000
  H   H175      1.0  0.26331  0.13393  0.91564  1.0000
  H   H176      1.0  0.40200  0.12531  0.80767  1.0000
  C   C92       1.0  0.45407  0.46253  0.95465  1.0000
  H   H177      1.0  0.47023  0.31861  0.68309  1.0000
  H   H178      1.0  0.47219  0.11546  0.93567  1.0000
  H   H179      1.0  0.30224  0.49385  0.98347  1.0000
  C   C93       1.0  0.32092  0.15494  0.92359  1.0000
  H   H180      1.0  0.41623  0.19918  0.89404  1.0000
  C   C94       1.0  0.33848  0.13798  0.89752  1.0000
  H   H181      1.0  0.40960  0.16114  0.85274  1.0000
  C   C95       1.0  0.41077  0.12507  0.93284  1.0000
  C   C96       1.0  0.28497  0.13334  0.93201  1.0000
  C   C97       1.0  0.42899  0.44207  0.97112  1.0000
  H   H182      1.0  0.45119  0.27901  0.75174  1.0000
  C   C98       1.0  0.37866  0.10900  0.84673  1.0000
  H   H183      1.0  0.42383  0.12049  0.67191  1.0000
  H   H184      1.0  0.09744  0.48257  0.74400  1.0000
  H   H185      1.0  0.38340  0.29619  0.74887  1.0000
  H   H186      1.0  0.15282  0.45611  0.86400  1.0000
  H   H187      1.0  0.00385  0.11987  0.98128  1.0000
  H   H188      1.0  0.40722  0.06999  0.75818  1.0000
  H   H189      1.0  0.28073  0.46820  0.76842  1.0000
  C   C99       1.0  0.03362  0.02123  0.69063  1.0000
  C   C100      1.0  0.38177  0.14906  0.85930  1.0000
  H   H190      1.0  0.41088  0.42058  0.96231  1.0000
  H   H191      1.0  0.29197  0.10355  0.93689  1.0000
  C   C101      1.0  0.36165  0.22218  0.88277  1.0000
  C   C102      1.0  0.40843  0.12667  0.90171  1.0000
  H   H192      1.0  0.46159  0.35991  0.77422  1.0000
  H   H193      1.0  0.39258  0.34004  0.76602  1.0000
  H   H194      1.0  0.33826  0.10664  0.89948  1.0000
  C   C103      1.0  0.43095  0.18231  0.67684  1.0000
  C   C104      1.0  0.37625  0.11101  0.81600  1.0000
  H   H195      1.0  0.20272  0.40694  0.85839  1.0000
  C   C105      1.0  0.44360  0.30915  0.75401  1.0000
  H   H196      1.0  0.38027  0.48879  0.93633  1.0000
  N   N7        1.0  0.37794  0.15151  0.88962  1.0000
  C   C106      1.0  0.26046  0.48401  0.86213  1.0000
  H   H197      1.0  0.35947  0.16638  0.84928  1.0000
  S   S31       1.0  0.46169  0.05581  0.80009  1.0000
  H   H198      1.0  0.35615  0.04091  0.94358  1.0000
  C   C107      1.0  0.22209  0.44938  0.77560  1.0000
  C   C108      1.0  0.43227  0.05233  0.72048  1.0000
  H   H199      1.0  0.37345  0.22684  0.86225  1.0000
  H   H200      1.0  0.33144  0.21317  0.88054  1.0000
  C   C109      1.0  0.32877  0.42485  0.94136  1.0000
  H   H201      1.0  0.35306  0.09369  0.85419  1.0000
  H   H202      1.0  0.27557  0.41847  0.77530  1.0000
  H   H203      1.0  0.39928  0.29575  0.78340  1.0000
  C   C110      1.0  0.46422  0.03668  0.70790  1.0000
  C   C111      1.0  0.37363  0.01106  0.97998  1.0000
  C   C112      1.0  0.14225  0.46241  0.79127  1.0000
  H   H204      1.0  0.08365  0.48599  0.78668  1.0000
  C   C113      1.0  0.44508  0.10180  0.94209  1.0000
  H   H205      1.0  0.42120  0.20230  0.69263  1.0000
  C   C114      1.0  0.48252  0.22464  0.66319  1.0000
  H   H206      1.0  0.00572  0.02278  0.70121  1.0000
  H   H207      1.0  0.46794  0.29011  0.89105  1.0000
  C   C115      1.0  0.21106  0.43628  0.86020  1.0000
  S   S32       1.0  0.47672  0.06430  0.87443  1.0000
  H   H208      1.0  0.21733  0.44400  0.75386  1.0000
  C   C116      1.0  0.30846  0.38787  0.93423  1.0000
  H   H209      1.0  0.05216  0.04499  0.69730  1.0000
  H   H210      1.0  0.32789  0.36374  0.93797  1.0000
  H   H211      1.0  0.02850  0.02432  0.66866  1.0000
  H   H212      1.0  0.07744  0.41549  0.78976  1.0000
  H   H213      1.0  0.14117  0.43841  0.77676  1.0000
  H   H214      1.0  0.40438  0.09213  0.85151  1.0000
  C   C117      1.0  0.45592  0.44185  0.75336  1.0000
  C   C118      1.0  0.46396  0.04839  0.76460  1.0000
  H   H215      1.0  0.34098  0.15464  0.94078  1.0000
  C   C119      1.0  0.47081  0.32999  0.77387  1.0000
  H   H216      1.0  0.07650  0.10743  0.98940  1.0000
  H   H217      1.0  0.43706  0.13543  0.89397  1.0000
  H   H218      1.0  0.09526  0.41778  0.82409  1.0000
  C   C120      1.0  0.37114  0.14389  0.68575  1.0000
  H   H219      1.0  0.27243  0.14667  0.95022  1.0000
  H   H220      1.0  0.31746  0.14411  0.88122  1.0000
  H   H221      1.0  0.38497  0.11093  0.94103  1.0000
  H   H222      1.0  0.36016  0.11589  0.69231  1.0000
  H   H223      1.0  0.41595  0.38087  0.70812  1.0000
  H   H224      1.0  0.01224  0.00090  0.96958  1.0000
  H   H225      1.0  0.16494  0.47047  0.73943  1.0000
  C   C121      1.0  0.47790  0.48988  0.96669  1.0000
  C   C122      1.0  0.30235  0.45920  0.93620  1.0000
  H   H226      1.0  0.05077  0.44000  0.81521  1.0000
  C   C123      1.0  0.40226  0.31044  0.76375  1.0000
  C   C124      1.0  0.08004  0.43350  0.80800  1.0000
  C   C125      1.0  0.36260  0.26013  0.89744  1.0000
  H   H227      1.0  0.34701  0.28154  0.88539  1.0000
  C   C126      1.0  0.38570  0.19195  0.89770  1.0000
  H   H228      1.0  0.10255  0.48732  0.82010  1.0000
  H   H229      1.0  0.35026  0.12640  0.80954  1.0000
  H   H230      1.0  0.20840  0.42626  0.78726  1.0000
  S   S33       1.0  0.45761  0.45498  0.91918  1.0000
  C   C127      1.0  0.41480  0.14349  0.68561  1.0000
  H   H231      1.0  0.35520  0.42673  0.92916  1.0000
  H   H232      1.0  0.34880  0.25776  0.91751  1.0000
  C   C128      1.0  0.18266  0.46412  0.86331  1.0000
  H   H233      1.0  0.36037  0.16565  0.69993  1.0000
  C   C129      1.0  0.46428  0.41666  0.69926  1.0000
  H   H234      1.0  0.44450  0.32260  0.73385  1.0000
  S   S34       1.0  0.46876  0.39818  0.66605  1.0000
  H   H235      1.0  0.46493  0.31982  0.79464  1.0000
  S   S35       1.0  0.46628  0.02878  0.67248  1.0000
  H   H236      1.0  0.27157  0.45195  0.80238  1.0000
  H   H237      1.0  0.27677  0.45437  0.94905  1.0000
  H   H238      1.0  0.35358  0.48475  0.90621  1.0000
  H   H239      1.0  0.40425  0.09684  0.89540  1.0000
  C   C130      1.0  0.48364  0.29541  0.67147  1.0000
  H   H240      1.0  0.31262  0.18477  0.92019  1.0000
  H   H241      1.0  0.37505  0.08197  0.80757  1.0000
  H   H242      1.0  0.44390  0.07280  0.93361  1.0000
  C   C131      1.0  0.26508  0.44702  0.78074  1.0000
  C   C132      1.0  0.10109  0.47022  0.80138  1.0000
  H   H243      1.0  0.44524  0.09968  0.96441  1.0000
  H   H244      1.0  0.34937  0.47884  0.97721  1.0000
  H   H245      1.0  0.29227  0.45741  0.91488  1.0000
  H   H246      1.0  0.38795  0.03652  0.98846  1.0000
  H   H247      1.0  0.29031  0.49196  0.86153  1.0000
  C   C133      1.0  0.47165  0.26311  0.88121  1.0000
  C   C134      1.0  0.37253  0.01539  0.94936  1.0000
  N   N8        1.0  0.47365  0.18512  0.67303  1.0000
  H   H248      1.0  0.47702  0.18935  0.71651  1.0000
  C   C135      1.0  0.46687  0.25757  0.68051  1.0000
  H   H249      1.0  0.07491  0.00414  0.73445  1.0000
  H   H250      1.0  0.13184  0.00161  0.71079  1.0000
  H   H251      1.0  0.48293  0.25923  0.79148  1.0000
  H   H252      1.0  0.20108  0.99791  0.70797  1.0000
  H   H253      1.0  0.31985  0.03542  0.99228  1.0000
  C   C136      1.0  0.33292  0.00678  0.99218  1.0000
  H   H254      1.0  0.47374  0.25351  0.70214  1.0000
  C   C137      1.0  0.48094  0.19261  0.85618  1.0000
  C   C138      1.0  0.48446  0.45702  0.73650  1.0000
  H   H255      1.0  0.21317  0.49222  0.80595  1.0000
  H   H256      1.0  0.12517  0.48903  0.69826  1.0000
  C   C139      1.0  0.20637  0.48859  0.78411  1.0000
  H   H257      1.0  0.32537  0.87205  0.01622  1.0000
  C   C140      1.0  0.43752  0.69054  0.15440  1.0000
  H   H258      1.0  0.43014  0.53943  0.18134  1.0000
  H   H259      1.0  0.32242  0.53403  0.02236  1.0000
  Fe  Fe17      1.0  0.40806  0.82985  0.09014  1.0000
  S   S36       1.0  0.45930  0.86635  0.09827  1.0000
  S   S37       1.0  0.40709  0.76768  0.07810  1.0000
  Fe  Fe18      1.0  0.35162  0.89414  0.10368  1.0000
  S   S38       1.0  0.39970  0.93406  0.11442  1.0000
  S   S39       1.0  0.28658  0.90262  0.10103  1.0000
  Fe  Fe19      1.0  0.42791  0.91259  0.07622  1.0000
  S   S40       1.0  0.45368  0.95790  0.04815  1.0000
  Fe  Fe20      1.0  0.42707  0.88442  0.13554  1.0000
  H   H260      1.0  0.40822  0.60462  0.08718  1.0000
  S   S41       1.0  0.37898  0.87450  0.06519  1.0000
  S   S42       1.0  0.37683  0.84616  0.12787  1.0000
  H   H261      1.0  0.20483  0.90091  0.09679  1.0000
  C   C141      1.0  0.21290  0.92974  0.10132  1.0000
  C   C142      1.0  0.25183  0.93905  0.10429  1.0000
  C   C143      1.0  0.38658  0.80658  0.21765  1.0000
  H   H262      1.0  0.41883  0.67971  0.21763  1.0000
  H   H263      1.0  0.41010  0.83735  0.28558  1.0000
  H   H264      1.0  0.15437  0.94960  0.10202  1.0000
  H   H265      1.0  0.38583  0.61769  0.18095  1.0000
  C   C144      1.0  0.34443  0.94913  0.02075  1.0000
  H   H266      1.0  0.16815  0.96227  0.20092  1.0000
  H   H267      1.0  0.33153  0.93435  0.03840  1.0000
  C   C145      1.0  0.45686  0.89094  0.20809  1.0000
  C   C146      1.0  0.44892  0.90962  0.26340  1.0000
  C   C147      1.0  0.41951  0.91722  0.24487  1.0000
  C   C148      1.0  0.42344  0.90793  0.21736  1.0000
  H   H268      1.0  0.39377  0.93079  0.25186  1.0000
  H   H269      1.0  0.40083  0.91378  0.20325  1.0000
  C   C149      1.0  0.46367  0.52634  0.25553  1.0000
  H   H270      1.0  0.30167  0.86270  0.22783  1.0000
  C   C150      1.0  0.24372  0.93755  0.20244  1.0000
  H   H271      1.0  0.44984  0.62912  0.12535  1.0000
  C   C151      1.0  0.46805  0.67021  0.07893  1.0000
  C   C152      1.0  0.43895  0.69712  0.07553  1.0000
  C   C153      1.0  0.44505  0.73523  0.08228  1.0000
  H   H272      1.0  0.46313  0.64108  0.07338  1.0000
  H   H273      1.0  0.41155  0.68841  0.06751  1.0000
  C   C154      1.0  0.40380  0.65295  0.21318  1.0000
  H   H274      1.0  0.19742  0.96687  0.01724  1.0000
  H   H275      1.0  0.28873  0.97329  0.16553  1.0000
  H   H276      1.0  0.35008  0.62607  0.22477  1.0000
  C   C155      1.0  0.48256  0.89304  0.25405  1.0000
  H   H277      1.0  0.29400  0.99204  0.19859  1.0000
  H   H278      1.0  0.21914  0.97445  0.04967  1.0000
  C   C156      1.0  0.34404  0.88317  0.99993  1.0000
  C   C157      1.0  0.46205  0.96174  0.01275  1.0000
  H   H279      1.0  0.39918  0.71743  0.27109  1.0000
  C   C158      1.0  0.45841  0.75830  0.16223  1.0000
  H   H280      1.0  0.42709  0.59518  0.14645  1.0000
  H   H281      1.0  0.46337  0.60689  0.18558  1.0000
  H   H282      1.0  0.98912  0.98867  0.20631  1.0000
  N   N9        1.0  0.43275  0.65056  0.16444  1.0000
  H   H283      1.0  0.47356  0.65268  0.19753  1.0000
  C   C159      1.0  0.46800  0.63653  0.17881  1.0000
  H   H284      1.0  0.35721  0.60785  0.09055  1.0000
  H   H285      1.0  0.37447  0.87875  0.00536  1.0000
  C   C160      1.0  0.26168  0.97646  0.11019  1.0000
  H   H286      1.0  0.36323  0.62931  0.13729  1.0000
  C   C161      1.0  0.33633  0.92500  0.99511  1.0000
  H   H287      1.0  0.44305  0.90581  0.00233  1.0000
  H   H288      1.0  0.46608  0.69905  0.30952  1.0000
  S   S43       1.0  0.39314  0.54774  0.27698  1.0000
  H   H289      1.0  0.37071  0.78614  0.25654  1.0000
  H   H290      1.0  0.39848  0.64926  0.29191  1.0000
  Fe  Fe21      1.0  0.39454  0.54762  0.32357  1.0000
  H   H291      1.0  0.43673  0.63773  0.31432  1.0000
  H   H292      1.0  0.44637  0.70842  0.25940  1.0000
  C   C162      1.0  0.17736  0.94735  0.18236  1.0000
  H   H293      1.0  0.46424  0.78017  0.17775  1.0000
  C   C163      1.0  0.29318  0.89947  0.17749  1.0000
  C   C164      1.0  0.26417  0.86610  0.17707  1.0000
  N   N10       1.0  0.28571  0.93126  0.19715  1.0000
  H   H294      1.0  0.43502  0.76848  0.14896  1.0000
  C   C165      1.0  0.25880  0.50692  0.28570  1.0000
  H   H295      1.0  0.44169  0.81154  0.25303  1.0000
  C   C166      1.0  0.27991  0.83236  0.16148  1.0000
  C   C167      1.0  0.18413  0.95732  0.10429  1.0000
  C   C168      1.0  0.44743  0.72095  0.17571  1.0000
  H   H296      1.0  0.36999  0.65709  0.24973  1.0000
  C   C169      1.0  0.29033  0.53776  0.28587  1.0000
  H   H297      1.0  0.38613  0.75014  0.23337  1.0000
  H   H298      1.0  0.40819  0.80201  0.20165  1.0000
  H   H299      1.0  0.41093  0.70043  0.14443  1.0000
  H   H300      1.0  0.30426  0.86058  0.27764  1.0000
  H   H301      1.0  0.29392  0.91033  0.15649  1.0000
  H   H302      1.0  0.32229  0.88772  0.18079  1.0000
  C   C170      1.0  0.31432  0.88589  0.26646  1.0000
  H   H303      1.0  0.25651  0.85616  0.19747  1.0000
  C   C171      1.0  0.43354  0.78120  0.25234  1.0000
  H   H304      1.0  0.36977  0.51438  0.01824  1.0000
  C   C172      1.0  0.41584  0.82217  0.30465  1.0000
  H   H305      1.0  0.25820  0.57947  0.30875  1.0000
  H   H306      1.0  0.42281  0.76692  0.32086  1.0000
  H   H307      1.0  0.22584  0.98284  0.17494  1.0000
  C   C173      1.0  0.36539  0.65332  0.22781  1.0000
  H   H308      1.0  0.36334  0.56472  0.01889  1.0000
  C   C174      1.0  0.25919  0.97302  0.01596  1.0000
  H   H309      1.0  0.28647  0.84045  0.14036  1.0000
  H   H310      1.0  0.30625  0.82155  0.17120  1.0000
  H   H311      1.0  0.25830  0.80932  0.16104  1.0000
  H   H312      1.0  0.34733  0.67685  0.22043  1.0000
  H   H313      1.0  0.23733  0.87481  0.16697  1.0000
  C   C175      1.0  0.38875  0.63179  0.12420  1.0000
  H   H314      1.0  0.38859  0.66011  0.11468  1.0000
  H   H315      1.0  0.42210  0.72648  0.18849  1.0000
  S   S44       1.0  0.44182  0.92053  0.29798  1.0000
  H   H316      1.0  0.45945  0.69171  0.13824  1.0000
  H   H317      1.0  0.22821  0.93731  0.15924  1.0000
  C   C176      1.0  0.47692  0.52337  0.20689  1.0000
  C   C177      1.0  0.41491  0.77879  0.30101  1.0000
  C   C178      1.0  0.27306  0.57705  0.28904  1.0000
  C   C179      1.0  0.45446  0.93218  0.99479  1.0000
  H   H318      1.0  0.29136  0.98409  0.11265  1.0000
  H   H319      1.0  0.37509  0.66617  0.17553  1.0000
  C   C180      1.0  0.35039  0.53765  0.01212  1.0000
  H   H320      1.0  0.42081  0.62944  0.22186  1.0000
  C   C181      1.0  0.39222  0.77902  0.24102  1.0000
  H   H321      1.0  0.47180  0.71256  0.18856  1.0000
  C   C182      1.0  0.39807  0.64679  0.18247  1.0000
  H   H322      1.0  0.38469  0.76980  0.29813  1.0000
  H   H323      1.0  0.38313  0.57358  0.11013  1.0000
  H   H324      1.0  0.44385  0.83118  0.31285  1.0000
  H   H325      1.0  0.30229  0.94905  0.23720  1.0000
  C   C183      1.0  0.42986  0.72106  0.27633  1.0000
  C   C184      1.0  0.42648  0.53874  0.25056  1.0000
  N   N11       1.0  0.44004  0.76243  0.27928  1.0000
  C   C185      1.0  0.38419  0.60262  0.10169  1.0000
  H   H326      1.0  0.37581  0.94726  0.02420  1.0000
  S   S45       1.0  0.47754  0.55380  0.10678  1.0000
  C   C186      1.0  0.47692  0.49661  0.99474  1.0000
  H   H327      1.0  0.16171  0.95959  0.16496  1.0000
  C   C187      1.0  0.30575  0.92418  0.22363  1.0000
  C   C188      1.0  0.42641  0.62543  0.14020  1.0000
  H   H328      1.0  0.34563  0.88328  0.26346  1.0000
  H   H329      1.0  0.25256  0.58292  0.27251  1.0000
  H   H330      1.0  0.38609  0.55324  0.21947  1.0000
  H   H331      1.0  0.45276  0.76858  0.23689  1.0000
  H   H332      1.0  0.29615  0.59862  0.28834  1.0000
  C   C189      1.0  0.29366  0.88832  0.23934  1.0000
  C   C190      1.0  0.43647  0.69631  0.30180  1.0000
  C   C191      1.0  0.22025  0.98261  0.02807  1.0000
  H   H333      1.0  0.16972  0.91696  0.18387  1.0000
  H   H334      1.0  0.30692  0.53781  0.26686  1.0000
  H   H335      1.0  0.26257  0.88795  0.24348  1.0000
  H   H336      1.0  0.38895  0.83612  0.22496  1.0000
  H   H337      1.0  0.41648  0.70467  0.31802  1.0000
  H   H338      1.0  0.35585  0.94311  0.17087  1.0000
  C   C192      1.0  0.43979  0.53615  0.20189  1.0000
  C   C193      1.0  0.41481  0.54380  0.22359  1.0000
  H   H339      1.0  0.22965  0.91157  0.21000  1.0000
  H   H340      1.0  0.30845  0.91126  0.27895  1.0000
  H   H341      1.0  0.33692  0.92097  0.22047  1.0000
  H   H342      1.0  0.35967  0.97463  0.07224  1.0000
  C   C194      1.0  0.48186  0.76484  0.28726  1.0000
  C   C195      1.0  0.42917  0.65447  0.29617  1.0000
  H   H343      1.0  0.31035  0.53309  0.30281  1.0000
  C   C196      1.0  0.22029  0.95220  0.17802  1.0000
  H   H344      1.0  0.35774  0.80260  0.20876  1.0000
  H   H345      1.0  0.44675  0.64428  0.27905  1.0000
  C   C197      1.0  0.30172  0.96754  0.18558  1.0000
  H   H346      1.0  0.23996  0.95858  0.21895  1.0000
  H   H347      1.0  0.26267  0.94201  0.01790  1.0000
  H   H348      1.0  0.29009  0.98163  0.05204  1.0000
  H   H349      1.0  0.47312  0.52218  0.27607  1.0000
  H   H350      1.0  0.23812  0.51373  0.26939  1.0000
  H   H351      1.0  0.36059  0.97169  0.20089  1.0000
  C   C198      1.0  0.34561  0.96890  0.18126  1.0000
  N   N12       1.0  0.33156  0.98989  0.02010  1.0000
  C   C199      1.0  0.38548  0.83477  0.32483  1.0000
  S   S46       1.0  0.46318  0.87799  0.17382  1.0000
  H   H352      1.0  0.24247  0.51064  0.30477  1.0000
  H   H353      1.0  0.35643  0.82785  0.31726  1.0000
  H   H354      1.0  0.25836  0.98095  0.99438  1.0000
  C   C200      1.0  0.48081  0.74628  0.09219  1.0000
  H   H355      1.0  0.27482  0.50491  0.23260  1.0000
  C   C201      1.0  0.19393  0.99474  0.11026  1.0000
  C   C202      1.0  0.29162  0.99356  0.03132  1.0000
  H   H356      1.0  0.02176  0.81993  0.48757  1.0000
  H   H357      1.0  0.08788  0.89043  0.52160  1.0000
  Fe  Fe22      1.0  0.40972  0.52639  0.38352  1.0000
  S   S47       1.0  0.36395  0.56539  0.39920  1.0000
  Fe  Fe23      1.0  0.32753  0.54247  0.36505  1.0000
  H   H358      1.0  0.20071  0.50647  0.45256  1.0000
  Fe  Fe24      1.0  0.38901  0.60707  0.36939  1.0000
  S   S48       1.0  0.39084  0.67124  0.37511  1.0000
  S   S49       1.0  0.43621  0.56945  0.35486  1.0000
  H   H359      1.0  0.45113  0.76755  0.43188  1.0000
  C   C203      1.0  0.43002  0.50004  0.46444  1.0000
  H   H360      1.0  0.06040  0.75362  0.63702  1.0000
  S   S50       1.0  0.05613  0.87902  0.64292  1.0000
  H   H361      1.0  0.01988  0.95814  0.52108  1.0000
  S   S51       1.0  0.05484  0.91019  0.58047  1.0000
  H   H362      1.0  0.33838  0.82205  0.41206  1.0000
  Fe  Fe25      1.0  0.03403  0.85835  0.60289  1.0000
  S   S52       1.0  0.04222  0.79756  0.58904  1.0000
  Fe  Fe26      1.0  0.07149  0.93317  0.62143  1.0000
  S   S53       1.0  0.12301  0.96917  0.63555  1.0000
  S   S54       1.0  0.01326  0.95885  0.62932  1.0000
  H   H363      1.0  0.00839  0.53923  0.51408  1.0000
  H   H364      1.0  0.38744  0.86584  0.32770  1.0000
  C   C204      1.0  0.99678  0.97387  0.48214  1.0000
  H   H365      1.0  0.11671  0.54297  0.46001  1.0000
  C   C205      1.0  0.46499  0.99286  0.51215  1.0000
  H   H366      1.0  0.01625  0.81455  0.52307  1.0000
  H   H367      1.0  0.07104  0.79558  0.65654  1.0000
  H   H368      1.0  0.44836  0.92403  0.54421  1.0000
  H   H369      1.0  0.03150  0.88847  0.49240  1.0000
  H   H370      1.0  0.37143  0.90244  0.40735  1.0000
  H   H371      1.0  0.03852  0.55711  0.37750  1.0000
  H   H372      1.0  0.02462  0.50211  0.46979  1.0000
  H   H373      1.0  0.02018  0.50994  0.38133  1.0000
  C   C206      1.0  0.17088  0.97620  0.62382  1.0000
  C   C207      1.0  0.44660  0.79124  0.44639  1.0000
  C   C208      1.0  0.45596  0.95640  0.46149  1.0000
  H   H374      1.0  0.36686  0.86904  0.37997  1.0000
  H   H375      1.0  0.35001  0.77589  0.44132  1.0000
  H   H376      1.0  0.08730  0.84745  0.50211  1.0000
  H   H377      1.0  0.41671  0.85660  0.42570  1.0000
  C   C209      1.0  0.42856  0.98295  0.50289  1.0000
  H   H378      1.0  0.04353  0.71637  0.58522  1.0000
  H   H379      1.0  0.41671  0.72516  0.45984  1.0000
  C   C210      1.0  0.43088  0.70200  0.37330  1.0000
  C   C211      1.0  0.42428  0.74106  0.37258  1.0000
  C   C212      1.0  0.45480  0.76693  0.37111  1.0000
  H   H380      1.0  0.39525  0.75133  0.37261  1.0000
  H   H381      1.0  0.44920  0.79674  0.37012  1.0000
  C   C213      1.0  0.07266  0.86321  0.51844  1.0000
  H   H382      1.0  0.16803  0.93670  0.59096  1.0000
  C   C214      1.0  0.38933  0.87289  0.50662  1.0000
  H   H383      1.0  0.13489  0.52682  0.41426  1.0000
  C   C215      1.0  0.22667  0.49878  0.36632  1.0000
  C   C216      1.0  0.18665  0.52435  0.43711  1.0000
  C   C217      1.0  0.39844  0.83116  0.42347  1.0000
  H   H384      1.0  0.40582  0.51617  0.45744  1.0000
  C   C218      1.0  0.01390  0.72486  0.58562  1.0000
  C   C219      1.0  0.05413  0.51324  0.47277  1.0000
  C   C220      1.0  0.42415  0.96478  0.47774  1.0000
  H   H385      1.0  0.36163  0.81955  0.47478  1.0000
  H   H386      1.0  0.99347  0.75651  0.50828  1.0000
  H   H387      1.0  0.33094  0.70927  0.45206  1.0000
  C   C221      1.0  0.12036  0.51218  0.45624  1.0000
  C   C222      1.0  0.14652  0.50953  0.43097  1.0000
  H   H388      1.0  0.04334  0.53872  0.54062  1.0000
  H   H389      1.0  0.02645  0.53984  0.42524  1.0000
  S   S55       1.0  0.34896  0.58776  0.33708  1.0000
  C   C223      1.0  0.06773  0.76441  0.65739  1.0000
  C   C224      1.0  0.47730  0.82102  0.43852  1.0000
  H   H390      1.0  0.39583  0.95730  0.47078  1.0000
  H   H391      1.0  0.35788  0.87474  0.50400  1.0000
  C   C225      1.0  0.35684  0.84513  0.41992  1.0000
  H   H392      1.0  0.40013  0.90156  0.51156  1.0000
  C   C226      1.0  0.05326  0.53038  0.41538  1.0000
  S   S56       1.0  0.44845  0.93251  0.43034  1.0000
  H   H393      1.0  0.36927  0.69168  0.43114  1.0000
  S   S57       1.0  0.26184  0.53524  0.36247  1.0000
  H   H394      1.0  0.18556  0.55401  0.44433  1.0000
  H   H395      1.0  0.40731  0.81842  0.40398  1.0000
  C   C227      1.0  0.99448  0.96580  0.50998  1.0000
  H   H396      1.0  0.36609  0.67768  0.46590  1.0000
  C   C228      1.0  0.35499  0.87770  0.39975  1.0000
  H   H397      1.0  0.02401  0.97178  0.47198  1.0000
  C   C229      1.0  0.38668  0.73502  0.45994  1.0000
  H   H398      1.0  0.47562  0.96914  0.63469  1.0000
  H   H399      1.0  0.38621  0.75847  0.41971  1.0000
  H   H400      1.0  0.07043  0.51760  0.37406  1.0000
  Fe  Fe27      1.0  0.99624  0.93290  0.58930  1.0000
  H   H401      1.0  0.04898  0.57095  0.51275  1.0000
  N   N13       1.0  0.40518  0.80349  0.44609  1.0000
  C   C230      1.0  0.18583  0.95671  0.60171  1.0000
  H   H402      1.0  0.32486  0.88643  0.39683  1.0000
  H   H403      1.0  0.43943  0.85823  0.48452  1.0000
  H   H404      1.0  0.40276  0.79996  0.48964  1.0000
  C   C231      1.0  0.39335  0.81906  0.47316  1.0000
  H   H405      1.0  0.40193  0.88000  0.46494  1.0000
  H   H406      1.0  0.48207  0.89797  0.59931  1.0000
  H   H407      1.0  0.07551  0.55215  0.41904  1.0000
  H   H408      1.0  0.20430  0.52361  0.41855  1.0000
  H   H409      1.0  0.07426  0.84662  0.53743  1.0000
  C   C232      1.0  0.38093  0.76892  0.44051  1.0000
  S   S58       1.0  0.37186  0.50131  0.35069  1.0000
  H   H410      1.0  0.46492  0.94323  0.58973  1.0000
  H   H411      1.0  0.38995  0.82092  0.34465  1.0000
  C   C233      1.0  0.00484  0.76338  0.58796  1.0000
  S   S59       1.0  0.46334  0.87569  0.36732  1.0000
  H   H412      1.0  0.34477  0.85540  0.43921  1.0000
  H   H413      1.0  0.18124  0.53391  0.35136  1.0000
  C   C234      1.0  0.36162  0.70150  0.45170  1.0000
  C   C235      1.0  0.04525  0.52847  0.38518  1.0000
  H   H414      1.0  0.05291  0.54357  0.46700  1.0000
  H   H415      1.0  0.37882  0.74278  0.48087  1.0000
  H   H416      1.0  0.39588  0.85378  0.52374  1.0000
  C   C236      1.0  0.40827  0.85889  0.48075  1.0000
  C   C237      1.0  0.47159  0.90279  0.54476  1.0000
  C   C238      1.0  0.46854  0.68901  0.37223  1.0000
  C   C239      1.0  0.22401  0.96297  0.59349  1.0000
  H   H417      1.0  0.47366  0.84808  0.44926  1.0000
  C   C240      1.0  0.00906  0.83337  0.50580  1.0000
  C   C241      1.0  0.03933  0.54217  0.51855  1.0000
  H   H418      1.0  0.46013  0.87581  0.55287  1.0000
  C   C242      1.0  0.18851  0.50628  0.35904  1.0000
  H   H419      1.0  0.23506  0.94771  0.57632  1.0000
  H   H420      1.0  0.45433  0.77962  0.46651  1.0000
  H   H421      1.0  0.09300  0.51703  0.50785  1.0000
  H   H422      1.0  0.47569  0.82687  0.41656  1.0000
  H   H423      1.0  0.99367  0.77129  0.64940  1.0000
  H   H424      1.0  0.99230  0.66763  0.58177  1.0000
  C   C243      1.0  0.03107  0.87080  0.51087  1.0000
  H   H425      1.0  0.45996  0.90221  0.64020  1.0000
  H   H426      1.0  0.01777  0.88710  0.52744  1.0000
  H   H427      1.0  0.41599  0.50666  0.50660  1.0000
  H   H428      1.0  0.13690  0.50178  0.47391  1.0000
  H   H429      1.0  0.47406  0.65898  0.37266  1.0000
  C   C244      1.0  0.24796  0.98868  0.60720  1.0000
  C   C245      1.0  0.06228  0.51218  0.50352  1.0000
  Fe  Fe28      1.0  0.99756  0.90334  0.64891  1.0000
  C   C246      1.0  0.98491  0.69714  0.58365  1.0000
  H   H430      1.0  0.48157  0.89807  0.52378  1.0000
  Fe  Fe29      1.0  0.48370  0.91146  0.33280  1.0000
  H   H431      1.0  0.40381  0.98920  0.51509  1.0000
  H   H432      1.0  0.00282  0.80403  0.67515  1.0000
  S   S60       1.0  0.07094  0.57518  0.83222  1.0000
  C   C247      1.0  0.05973  0.90897  0.72709  1.0000
  H   H433      1.0  0.02294  0.84197  0.74196  1.0000
  S   S61       1.0  0.06061  0.57345  0.89817  1.0000
  Fe  Fe30      1.0  0.03546  0.60537  0.86330  1.0000
  S   S62       1.0  0.03575  0.66976  0.86192  1.0000
  Fe  Fe31      1.0  0.09345  0.54057  0.86684  1.0000
  H   H434      1.0  0.13807  0.91832  0.72841  1.0000
  H   H435      1.0  0.12314  0.53805  0.79120  1.0000
  C   C248      1.0  0.04934  0.83832  0.72984  1.0000
  H   H436      1.0  0.99725  0.74712  0.72318  1.0000
  C   C249      1.0  0.06053  0.97820  0.72673  1.0000
  H   H437      1.0  0.30089  0.55588  0.93674  1.0000
  C   C250      1.0  0.46233  0.93650  0.96702  1.0000
  H   H438      1.0  0.01575  0.64742  0.94736  1.0000
  H   H439      1.0  0.02864  0.63234  0.77877  1.0000
  C   C251      1.0  0.18440  0.97117  0.70833  1.0000
  H   H440      1.0  0.08327  0.62588  0.98328  1.0000
  H   H441      1.0  0.03336  0.75058  0.86016  1.0000
  C   C252      1.0  0.23207  0.51183  0.86528  1.0000
  H   H442      1.0  0.20692  0.56496  0.79009  1.0000
  H   H443      1.0  0.45667  0.91326  0.95342  1.0000
  C   C253      1.0  0.35583  0.50142  0.92521  1.0000
  H   H444      1.0  0.46234  0.89548  0.68937  1.0000
  C   C254      1.0  0.17626  0.56740  0.78473  1.0000
  H   H445      1.0  0.08567  0.92124  0.81850  1.0000
  C   C255      1.0  0.99848  0.77325  0.67145  1.0000
  H   H446      1.0  0.07974  0.98287  0.68437  1.0000
  H   H447      1.0  0.03322  0.56519  0.76050  1.0000
  H   H448      1.0  0.10513  0.53246  0.74990  1.0000
  H   H449      1.0  0.06261  0.81099  0.73539  1.0000
  C   C256      1.0  0.00484  0.74077  0.86489  1.0000
  H   H450      1.0  0.02043  0.58850  0.71409  1.0000
  C   C257      1.0  0.03682  0.75309  0.67755  1.0000
  Fe  Fe32      1.0  0.01311  0.53114  0.89176  1.0000
  C   C258      1.0  0.03320  0.59647  0.96740  1.0000
  H   H451      1.0  0.17364  0.57237  0.76276  1.0000
  H   H452      1.0  0.05563  0.90744  0.70488  1.0000
  H   H453      1.0  0.03846  0.93902  0.82518  1.0000
  C   C259      1.0  0.32809  0.50050  0.97134  1.0000
  S   S63       1.0  0.15878  0.53838  0.87104  1.0000
  C   C260      1.0  0.34529  0.53818  0.98150  1.0000
  C   C261      1.0  0.15387  0.53153  0.79342  1.0000
  C   C262      1.0  0.99763  0.70178  0.86694  1.0000
  C   C263      1.0  0.16114  0.60242  0.79914  1.0000
  H   H454      1.0  0.13107  0.60790  0.79324  1.0000
  H   H455      1.0  0.10363  0.86498  0.72382  1.0000
  H   H456      1.0  0.19619  0.55368  0.94535  1.0000
  H   H457      1.0  0.13284  0.53903  0.70413  1.0000
  C   C264      1.0  0.08982  0.94503  0.76463  1.0000
  C   C265      1.0  0.36758  0.54179  0.91588  1.0000
  C   C266      1.0  0.29070  0.52682  0.93258  1.0000
  H   H458      1.0  0.10261  0.97273  0.77028  1.0000
  H   H459      1.0  0.16272  0.59874  0.82137  1.0000
  H   H460      1.0  0.24040  0.54117  0.86708  1.0000
  H   H461      1.0  0.17864  0.62743  0.79354  1.0000
  C   C267      1.0  0.07533  0.60779  0.96585  1.0000
  C   C268      1.0  0.00697  0.63172  0.96581  1.0000
  H   H462      1.0  0.04109  0.91119  0.78011  1.0000
  C   C269      1.0  0.40930  0.54340  0.90696  1.0000
  N   N14       1.0  0.31949  0.49774  0.94159  1.0000
  C   C270      1.0  0.06454  0.94309  0.81271  1.0000
  C   C271      1.0  0.00150  0.49732  0.97213  1.0000
  H   H463      1.0  0.18065  0.96123  0.68724  1.0000
  N   N15       1.0  0.08266  0.94348  0.73462  1.0000
  H   H464      1.0  0.34959  0.55028  0.89845  1.0000
  H   H465      1.0  0.32680  0.56248  0.97647  1.0000
  S   S64       1.0  0.98578  0.56586  0.85883  1.0000
  H   H466      1.0  0.09547  0.75192  0.66342  1.0000
  C   C272      1.0  0.00311  0.56595  0.72235  1.0000
  H   H467      1.0  0.11632  0.93451  0.69845  1.0000
  H   H468      1.0  0.03385  0.96082  0.68850  1.0000
  C   C273      1.0  0.05297  0.98342  0.69617  1.0000
  H   H469      1.0  0.09333  0.58204  0.96625  1.0000
  H   H470      1.0  0.04181  0.83764  0.70811  1.0000
  H   H471      1.0  0.41623  0.57206  0.89928  1.0000
  C   C274      1.0  0.05411  0.93954  0.78292  1.0000
  H   H472      1.0  0.41479  0.52272  0.89063  1.0000
  H   H473      1.0  0.11152  0.92381  0.77073  1.0000
  H   H474      1.0  0.03047  0.91082  0.73551  1.0000
  H   H475      1.0  0.02720  0.50978  0.96393  1.0000
  C   C275      1.0  0.12049  0.94172  0.72015  1.0000
  C   C276      1.0  0.07721  0.87057  0.73549  1.0000
  H   H476      1.0  0.03199  0.97804  0.73646  1.0000
  H   H477      1.0  0.37415  0.54245  0.97276  1.0000
  S   S65       1.0  0.99660  0.50557  0.79258  1.0000
  C   C277      1.0  0.98829  0.52367  0.75962  1.0000
  H   H478      1.0  0.30651  0.92759  0.98809  1.0000
  Fe  Fe33      1.0  0.02282  0.53331  0.83004  1.0000
  C   C278      1.0  0.47328  0.92171  0.67979  1.0000
  H   H479      1.0  0.36391  0.56331  0.93178  1.0000
  H   H480      1.0  0.33797  0.86695  0.98124  1.0000
  H   H481      1.0  0.35512  0.93403  0.97831  1.0000
  S   S66       1.0  0.04743  0.49604  0.86270  1.0000
  H   H482      1.0  0.25099  0.52186  0.96708  1.0000
  C   C279      1.0  0.01038  0.55288  0.74870  1.0000
  H   H483      1.0  0.08138  0.62331  0.94686  1.0000
  C   C280      1.0  0.25001  0.52347  0.94479  1.0000
  C   C281      1.0  0.22549  0.55746  0.93719  1.0000
  H   H484      1.0  0.02719  0.57660  0.95074  1.0000
  H   H485      1.0  0.04738  0.76092  0.69788  1.0000
  H   H486      1.0  0.45016  0.94312  0.68011  1.0000
  H   H487      1.0  0.00499  0.67309  0.79267  1.0000
  H   H488      1.0  0.42850  0.53720  0.92422  1.0000
  H   H489      1.0  0.28727  0.52532  0.91027  1.0000
  H   H490      1.0  0.31517  0.99035  0.97784  1.0000
  H   H491      1.0  0.08423  0.86970  0.75725  1.0000
  C   C282      1.0  0.14560  0.97784  0.72157  1.0000
  H   H492      1.0  0.01479  0.65017  0.98320  1.0000
  H   H493      1.0  0.07644  0.97156  0.81711  1.0000
  H   H494      1.0  0.01157  0.63120  0.81291  1.0000
  C   C283      1.0  0.47786  0.97033  0.95673  1.0000
  H   H495      1.0  0.20090  0.94974  0.71973  1.0000
  H   H496      1.0  0.03200  0.96101  0.77862  1.0000
  H   H497      1.0  0.15826  0.52810  0.81545  1.0000
  H   H498      1.0  0.39176  0.98644  0.98485  1.0000
  H   H499      1.0  0.22324  0.56016  0.91494  1.0000
  H   H500      1.0  0.23777  0.58390  0.94564  1.0000
  H   H501      1.0  0.02926  0.58090  0.98661  1.0000
  C   C284      1.0  0.00536  0.64173  0.79234  1.0000
  C   C285      1.0  0.99089  0.98974  0.98319  1.0000
  H   H502      1.0  0.22391  0.50993  0.77320  1.0000
  H   H503      1.0  0.23514  0.49803  0.93683  1.0000
  C   C286      1.0  0.19304  0.50207  0.86610  1.0000
  H   H504      1.0  0.17762  0.51861  0.74004  1.0000
  H   H505      1.0  0.15081  0.98651  0.74272  1.0000
  H   H506      1.0  0.03371  0.72197  0.67648  1.0000
  H   H507      1.0  0.35941  0.99004  0.93988  1.0000
  C   C287      1.0  0.11659  0.50695  0.73992  1.0000
  N   N16       1.0  0.16425  0.49525  0.77927  1.0000
  C   C288      1.0  0.11505  0.51413  0.70957  1.0000
  H   H508      1.0  0.08508  0.51992  0.70345  1.0000
  C   C289      1.0  0.15774  0.49771  0.74925  1.0000
  Fe  Fe34      1.0  0.85518  0.42028  0.10980  1.0000
  S   S67       1.0  0.90826  0.45638  0.11183  1.0000
  S   S68       1.0  0.79932  0.44695  0.12545  1.0000
  Fe  Fe35      1.0  0.90357  0.34908  0.09883  1.0000
  S   S69       1.0  0.95884  0.38118  0.10017  1.0000
  S   S70       1.0  0.89892  0.28458  0.09699  1.0000
  Fe  Fe36      1.0  0.93448  0.41011  0.13660  1.0000
  C   C290      1.0  0.88086  0.46287  0.24190  1.0000
  Fe  Fe37      1.0  0.92868  0.42517  0.07507  1.0000
  C   C291      1.0  0.95213  0.01153  0.26829  1.0000
  S   S71       1.0  0.88084  0.37572  0.13678  1.0000
  S   S72       1.0  0.87385  0.39110  0.07133  1.0000
  H   H509      1.0  0.78229  0.46713  0.19791  1.0000
  H   H510      1.0  0.69853  0.37791  0.01957  1.0000
  H   H511      1.0  0.86007  0.08490  0.12537  1.0000
  H   H512      1.0  0.76773  0.44103  0.07038  1.0000
  C   C292      1.0  0.98386  0.04542  0.22127  1.0000
  H   H513      1.0  0.96997  0.17660  0.99757  1.0000
  C   C293      1.0  0.90404  0.08219  0.16734  1.0000
  S   S73       1.0  0.95937  0.37897  0.29693  1.0000
  H   H514      1.0  0.92740  0.45895  0.28742  1.0000
  H   H515      1.0  0.79512  0.08416  0.09992  1.0000
  C   C294      1.0  0.94059  0.37363  0.24334  1.0000
  H   H516      1.0  0.63312  0.42595  0.03759  1.0000
  C   C295      1.0  0.93782  0.25250  0.09625  1.0000
  C   C296      1.0  0.97000  0.40935  0.20691  1.0000
  C   C297      1.0  0.93123  0.21414  0.10219  1.0000
  H   H517      1.0  0.95535  0.15798  0.10461  1.0000
  H   H518      1.0  0.90289  0.20502  0.10797  1.0000
  H   H519      1.0  0.90556  0.44379  0.23869  1.0000
  H   H520      1.0  0.84095  0.01077  0.18305  1.0000
  C   C298      1.0  0.70961  0.46178  0.07298  1.0000
  C   C299      1.0  0.94279  0.38317  0.21578  1.0000
  H   H521      1.0  0.90172  0.11731  0.99610  1.0000
  H   H522      1.0  0.58320  0.46851  0.03062  1.0000
  H   H523      1.0  0.87001  0.99830  0.14177  1.0000
  H   H524      1.0  0.51462  0.38850  0.08270  1.0000
  C   C300      1.0  0.63809  0.36674  0.02738  1.0000
  C   C301      1.0  0.75399  0.45794  0.11083  1.0000
  C   C302      1.0  0.74595  0.45248  0.08346  1.0000
  C   C303      1.0  0.97455  0.26390  0.08866  1.0000
  H   H525      1.0  0.73084  0.47716  0.14863  1.0000
  H   H526      1.0  0.87721  0.13713  0.16000  1.0000
  C   C304      1.0  0.56028  0.39593  0.03707  1.0000
  H   H527      1.0  0.94439  0.23513  0.19222  1.0000
  C   C305      1.0  0.95620  0.05078  0.26663  1.0000
  H   H528      1.0  0.82577  0.03326  0.23904  1.0000
  C   C306      1.0  0.72513  0.47297  0.12743  1.0000
  H   H529      1.0  0.86698  0.11788  0.19277  1.0000
  C   C307      1.0  0.85291  0.03959  0.18641  1.0000
  C   C308      1.0  0.85608  0.43851  0.19929  1.0000
  H   H530      1.0  0.54506  0.46014  0.00829  1.0000
  S   S74       1.0  0.52844  0.47599  0.10398  1.0000
  C   C309      1.0  0.83211  0.40805  0.21429  1.0000
  H   H531      1.0  0.80100  0.02644  0.14628  1.0000
  H   H532      1.0  0.90324  0.03029  0.12681  1.0000
  C   C310      1.0  0.81649  0.37804  0.19508  1.0000
  H   H533      1.0  0.88348  0.42515  0.19327  1.0000
  C   C311      1.0  0.57576  0.45415  0.01131  1.0000
  H   H534      1.0  0.88963  0.26033  0.15162  1.0000
  H   H535      1.0  0.91030  0.45002  0.00195  1.0000
  H   H536      1.0  0.57592  0.40026  0.05647  1.0000
  H   H537      1.0  0.84187  0.44458  0.17981  1.0000
  H   H538      1.0  0.88238  0.06787  0.22025  1.0000
  H   H539      1.0  0.85024  0.39332  0.22935  1.0000
  H   H540      1.0  0.80771  0.42090  0.22512  1.0000
  H   H541      1.0  0.82743  0.02534  0.11504  1.0000
  H   H542      1.0  0.93250  0.31418  0.16767  1.0000
  S   S75       1.0  0.97208  0.42492  0.17291  1.0000
  C   C312      1.0  0.96090  0.18740  0.10028  1.0000
  H   H543      1.0  0.87198  0.48944  0.15891  1.0000
  H   H544      1.0  0.84030  0.36161  0.18629  1.0000
  H   H545      1.0  0.79769  0.35822  0.20631  1.0000
  H   H546      1.0  0.79953  0.39114  0.17864  1.0000
  H   H547      1.0  0.63511  0.34784  0.00966  1.0000
  H   H548      1.0  0.91771  0.17237  0.04748  1.0000
  H   H549      1.0  0.93457  0.13082  0.20671  1.0000
  C   C313      1.0  0.89166  0.02036  0.14654  1.0000
  H   H550      1.0  0.92285  0.37105  0.20155  1.0000
  C   C314      1.0  0.90854  0.09128  0.04453  1.0000
  H   H551      1.0  0.92949  0.23434  0.00494  1.0000
  N   N17       1.0  0.95965  0.11985  0.01195  1.0000
  C   C315      1.0  0.92479  0.29032  0.18111  1.0000
  C   C316      1.0  0.92401  0.99904  0.16123  1.0000
  C   C317      1.0  0.90312  0.07809  0.07354  1.0000
  N   N18       1.0  0.58304  0.41228  0.01385  1.0000
  H   H552      1.0  0.96555  0.07114  0.03840  1.0000
  H   H553      1.0  0.91874  0.35416  0.25015  1.0000
  C   C318      1.0  0.85355  0.01906  0.23560  1.0000
  H   H554      1.0  0.70389  0.45731  0.05181  1.0000
  H   H555      1.0  0.95246  0.23315  0.03754  1.0000
  C   C319      1.0  0.87595  0.03880  0.21320  1.0000
  H   H556      1.0  0.55708  0.36480  0.03466  1.0000
  N   N19       1.0  0.87364  0.05303  0.16138  1.0000
  H   H557      1.0  0.89728  0.06860  0.03126  1.0000
  H   H558      1.0  0.89038  0.11636  0.04159  1.0000
  H   H559      1.0  0.97658  0.25434  0.23218  1.0000
  H   H560      1.0  0.91089  0.17286  0.19511  1.0000
  H   H561      1.0  0.82927  0.09385  0.15306  1.0000
  H   H562      1.0  0.94724  0.06823  0.28335  1.0000
  H   H563      1.0  0.90134  0.23666  0.03533  1.0000
  H   H564      1.0  0.85982  0.44648  0.25402  1.0000
  C   C320      1.0  0.68008  0.36648  0.03588  1.0000
  H   H565      1.0  0.94701  0.01839  0.16781  1.0000
  H   H566      1.0  0.90342  0.02406  0.21100  1.0000
  H   H567      1.0  0.91217  0.10055  0.08784  1.0000
  H   H568      1.0  0.87253  0.07145  0.07705  1.0000
  H   H569      1.0  0.91991  0.05213  0.07731  1.0000
  C   C321      1.0  0.88945  0.12110  0.17718  1.0000
  H   H570      1.0  0.92036  0.48089  0.19852  1.0000
  C   C322      1.0  0.92198  0.14492  0.18881  1.0000
  S   S76       1.0  0.63531  0.48732  0.07511  1.0000
  C   C323      1.0  0.92337  0.18078  0.02631  1.0000
  H   H571      1.0  0.92002  0.30153  0.20164  1.0000
  H   H572      1.0  0.86538  0.29724  0.16960  1.0000
  H   H573      1.0  0.87921  0.46864  0.29845  1.0000
  H   H574      1.0  0.66692  0.49329  0.13014  1.0000
  H   H575      1.0  0.87552  0.25314  0.18623  1.0000
  H   H576      1.0  0.92168  0.08760  0.14908  1.0000
  C   C324      1.0  0.95128  0.09923  0.03803  1.0000
  C   C325      1.0  0.81440  0.04412  0.13040  1.0000
  H   H577      1.0  0.94471  0.14924  0.17347  1.0000
  H   H578      1.0  0.62141  0.35458  0.04430  1.0000
  S   S77       1.0  0.96648  0.45913  0.04576  1.0000
  H   H579      1.0  0.96408  0.11487  0.05537  1.0000
  C   C326      1.0  0.95613  0.25948  0.18080  1.0000
  H   H580      1.0  0.98216  0.16962  0.03208  1.0000
  C   C327      1.0  0.96067  0.16206  0.01641  1.0000
  C   C328      1.0  0.88656  0.27417  0.17155  1.0000
  C   C329      1.0  0.49837  0.38951  0.06349  1.0000
  H   H581      1.0  0.52298  0.44175  0.05023  1.0000
  H   H582      1.0  0.76754  0.08458  0.13081  1.0000
  H   H583      1.0  0.98249  0.30455  0.13845  1.0000
  N   N20       1.0  0.86373  0.47421  0.21511  1.0000
  C   C330      1.0  0.62497  0.40743  0.02033  1.0000
  C   C331      1.0  0.92700  0.22381  0.02594  1.0000
  H   H584      1.0  0.50233  0.41369  0.02403  1.0000
  H   H585      1.0  0.81380  0.48758  0.23918  1.0000
  H   H586      1.0  0.68912  0.33710  0.04027  1.0000
  H   H587      1.0  0.89850  0.17325  0.01359  1.0000
  C   C332      1.0  0.68876  0.48217  0.11697  1.0000
  H   H588      1.0  0.92447  0.07165  0.18251  1.0000
  C   C333      1.0  0.78290  0.06633  0.11622  1.0000
  C   C334      1.0  0.97993  0.00615  0.22293  1.0000
  H   H589      1.0  0.97999  0.29320  0.08377  1.0000
  C   C335      1.0  0.84506  0.07096  0.14252  1.0000
  H   H590      1.0  0.82763  0.05765  0.19065  1.0000
  H   H591      1.0  0.76196  0.04641  0.10712  1.0000
  C   C336      1.0  0.96594  0.38959  0.26226  1.0000
  C   C337      1.0  0.90486  0.48088  0.28853  1.0000
  H   H592      1.0  0.64313  0.41644  0.00313  1.0000
  H   H593      1.0  0.95890  0.24935  0.15961  1.0000
  C   C338      1.0  0.96701  0.47005  0.01069  1.0000
  C   C339      1.0  0.52008  0.41254  0.04239  1.0000
  H   H594      1.0  0.93436  0.04901  0.99645  1.0000
  H   H595      1.0  0.49314  0.36033  0.05613  1.0000
  C   C340      1.0  0.68069  0.47651  0.08965  1.0000
  H   H596      1.0  0.81276  0.12219  0.32579  1.0000
  H   H597      1.0  0.97127  0.30286  0.22522  1.0000
  H   H598      1.0  0.68429  0.38364  0.05441  1.0000
  H   H599      1.0  0.76250  0.13247  0.32348  1.0000
  H   H600      1.0  0.77864  0.08393  0.32479  1.0000
  H   H601      1.0  0.97505  0.09789  0.24239  1.0000
  C   C341      1.0  0.93572  0.46320  0.99381  1.0000
  H   H602      1.0  0.87020  0.02017  0.25466  1.0000
  C   C342      1.0  0.97194  0.06753  0.24329  1.0000
  C   C343      1.0  0.78180  0.11399  0.36314  1.0000
  Fe  Fe38      1.0  0.92559  0.01099  0.39952  1.0000
  H   H603      1.0  0.51687  0.44235  0.49036  1.0000
  H   H604      1.0  0.54738  0.16707  0.65724  1.0000
  S   S78       1.0  0.55519  0.36569  0.62177  1.0000
  Fe  Fe39      1.0  0.91137  0.01272  0.33758  1.0000
  S   S79       1.0  0.55570  0.39143  0.55841  1.0000
  H   H605      1.0  0.50953  0.20709  0.56323  1.0000
  Fe  Fe40      1.0  0.52442  0.34848  0.58398  1.0000
  S   S80       1.0  0.51702  0.28693  0.57062  1.0000
  Fe  Fe41      1.0  0.58292  0.41229  0.59708  1.0000
  S   S81       1.0  0.64900  0.41687  0.60001  1.0000
  S   S82       1.0  0.53542  0.45402  0.60593  1.0000
  Fe  Fe42      1.0  0.88830  0.07933  0.37280  1.0000
  S   S83       1.0  0.94438  0.05036  0.36600  1.0000
  S   S84       1.0  0.87923  0.14301  0.37661  1.0000
  H   H606      1.0  0.77879  0.18149  0.45711  1.0000
  H   H607      1.0  0.63206  0.05072  0.42771  1.0000
  S   S85       1.0  0.95547  0.48450  0.54907  1.0000
  H   H608      1.0  0.53770  0.10322  0.63538  1.0000
  S   S86       1.0  0.87136  0.04223  0.40770  1.0000
  S   S87       1.0  0.85574  0.04386  0.34239  1.0000
  C   C344      1.0  0.52680  0.16331  0.64043  1.0000
  C   C345      1.0  0.95523  0.13445  0.45692  1.0000
  H   H609      1.0  0.80463  0.09549  0.37098  1.0000
  H   H610      1.0  0.73020  0.40975  0.60703  1.0000
  H   H611      1.0  0.77155  0.08631  0.45692  1.0000
  H   H612      1.0  0.90736  0.43408  0.58183  1.0000
  H   H613      1.0  0.67937  0.05437  0.37565  1.0000
  H   H614      1.0  0.93571  0.07658  0.44649  1.0000
  H   H615      1.0  0.73760  0.07190  0.36484  1.0000
  H   H616      1.0  0.78381  0.45589  0.61025  1.0000
  Fe  Fe43      1.0  0.84339  0.00426  0.37689  1.0000
  H   H617      1.0  0.72739  0.06016  0.45247  1.0000
  C   C346      1.0  0.68647  0.45165  0.60150  1.0000
  H   H618      1.0  0.76353  0.00164  0.44451  1.0000
  H   H619      1.0  0.79145  0.07593  0.41143  1.0000
  C   C347      1.0  0.72450  0.43960  0.60505  1.0000
  C   C348      1.0  0.53936  0.12971  0.62344  1.0000
  H   H620      1.0  0.74161  0.16140  0.39912  1.0000
  H   H621      1.0  0.67707  0.11688  0.39943  1.0000
  C   C349      1.0  0.75515  0.46574  0.60665  1.0000
  C   C350      1.0  0.91645  0.17736  0.37906  1.0000
  C   C351      1.0  0.90698  0.21584  0.38116  1.0000
  C   C352      1.0  0.93560  0.24379  0.38412  1.0000
  H   H622      1.0  0.87730  0.22412  0.38066  1.0000
  H   H623      1.0  0.92781  0.27318  0.38613  1.0000
  C   C353      1.0  0.74880  0.18807  0.45157  1.0000
  H   H624      1.0  0.50649  0.45153  0.44117  1.0000
  H   H625      1.0  0.77631  0.02296  0.47623  1.0000
  C   C354      1.0  0.98358  0.19514  0.38273  1.0000
  C   C355      1.0  0.74807  0.13896  0.41421  1.0000
  C   C356      1.0  0.78373  0.42676  0.53006  1.0000
  C   C357      1.0  0.55307  0.00913  0.61770  1.0000
  H   H626      1.0  0.53440  0.02252  0.63307  1.0000
  H   H627      1.0  0.72025  0.11908  0.36338  1.0000
  C   C358      1.0  0.71556  0.40780  0.51928  1.0000
  H   H628      1.0  0.55096  0.05791  0.59102  1.0000
  H   H629      1.0  0.74870  0.21112  0.43638  1.0000
  C   C359      1.0  0.72870  0.15294  0.44051  1.0000
  H   H630      1.0  0.79153  0.39759  0.52399  1.0000
  H   H631      1.0  0.62459  0.02398  0.39727  1.0000
  H   H632      1.0  0.96900  0.05055  0.51897  1.0000
  H   H633      1.0  0.53511  0.33176  0.51700  1.0000
  H   H634      1.0  0.87709  0.45348  0.53824  1.0000
  C   C360      1.0  0.95463  0.47629  0.51360  1.0000
  C   C361      1.0  0.69415  0.09370  0.40860  1.0000
  H   H635      1.0  0.70877  0.40435  0.54104  1.0000
  H   H636      1.0  0.68735  0.09469  0.43039  1.0000
  H   H637      1.0  0.72484  0.38027  0.51087  1.0000
  H   H638      1.0  0.52843  0.18873  0.62732  1.0000
  H   H639      1.0  0.93000  0.08823  0.48127  1.0000
  H   H640      1.0  0.96277  0.13785  0.37760  1.0000
  H   H641      1.0  0.68118  0.99797  0.32780  1.0000
  H   H642      1.0  0.87343  0.41342  0.49264  1.0000
  H   H643      1.0  0.75535  0.04278  0.40453  1.0000
  S   S88       1.0  0.96097  0.36595  0.37181  1.0000
  C   C362      1.0  0.88142  0.41727  0.58661  1.0000
  H   H644      1.0  0.75111  0.44134  0.49341  1.0000
  H   H645      1.0  0.59280  0.02870  0.58682  1.0000
  H   H646      1.0  0.96710  0.11988  0.51192  1.0000
  C   C363      1.0  0.63563  0.05113  0.40547  1.0000
  H   H647      1.0  0.53945  0.37747  0.50066  1.0000
  Fe  Fe44      1.0  0.50724  0.43072  0.56798  1.0000
  H   H648      1.0  0.87804  0.13332  0.46996  1.0000
  H   H649      1.0  0.80812  0.02720  0.44787  1.0000
  H   H650      1.0  0.77541  0.42453  0.55161  1.0000
  C   C364      1.0  0.74652  0.43790  0.51536  1.0000
  H   H651      1.0  0.84209  0.46320  0.58240  1.0000
  H   H652      1.0  0.88275  0.12073  0.43480  1.0000
  H   H653      1.0  0.78836  0.14336  0.36946  1.0000
  H   H654      1.0  0.86412  0.40210  0.44467  1.0000
  H   H655      1.0  0.85646  0.40748  0.53573  1.0000
  H   H656      1.0  0.68903  0.41657  0.50876  1.0000
  C   C365      1.0  0.49163  0.34318  0.48674  1.0000
  H   H657      1.0  0.87784  0.41679  0.60885  1.0000
  C   C366      1.0  0.92846  0.09969  0.46053  1.0000
  N   N21       1.0  0.73614  0.10065  0.40349  1.0000
  C   C367      1.0  0.88680  0.11068  0.45580  1.0000
  H   H658      1.0  0.88551  0.38785  0.57945  1.0000
  H   H659      1.0  0.82153  0.41673  0.57936  1.0000
  C   C368      1.0  0.53217  0.34723  0.49763  1.0000
  H   H660      1.0  0.86802  0.08580  0.45920  1.0000
  C   C369      1.0  0.84523  0.42122  0.48405  1.0000
  H   H661      1.0  0.73373  0.19815  0.46988  1.0000
  C   C370      1.0  0.84611  0.43472  0.57356  1.0000
  C   C371      1.0  0.85061  0.43685  0.54246  1.0000
  H   H662      1.0  0.55276  0.33514  0.48302  1.0000
  H   H663      1.0  0.87088  0.45180  0.45035  1.0000
  H   H664      1.0  0.78869  0.48846  0.55634  1.0000
  C   C372      1.0  0.77764  0.02646  0.45402  1.0000
  C   C373      1.0  0.76076  0.06986  0.41516  1.0000
  H   H665      1.0  0.61838  0.07439  0.39679  1.0000
  H   H666      1.0  0.82525  0.39711  0.48642  1.0000
  H   H667      1.0  0.77967  0.14001  0.41712  1.0000
  C   C374      1.0  0.95500  0.16722  0.37955  1.0000
  H   H668      1.0  0.94970  0.14619  0.43645  1.0000
  C   C375      1.0  0.67770  0.05575  0.39793  1.0000
  C   C376      1.0  0.75744  0.06287  0.44584  1.0000
  H   H669      1.0  0.72852  0.13132  0.45655  1.0000
  C   C377      1.0  0.49249  0.45817  0.48336  1.0000
  Fe  Fe45      1.0  0.50656  0.40598  0.62851  1.0000
  H   H670      1.0  0.98311  0.20336  0.44482  1.0000
  H   H671      1.0  0.94403  0.15627  0.47100  1.0000
  H   H672      1.0  0.73505  0.46440  0.52404  1.0000
  C   C378      1.0  0.48548  0.15800  0.65111  1.0000
  C   C379      1.0  0.57260  0.04067  0.60178  1.0000
  N   N22       1.0  0.81736  0.45324  0.52699  1.0000
  H   H673      1.0  0.69322  0.03138  0.40660  1.0000
  H   H674      1.0  0.74896  0.00327  0.34256  1.0000
  H   H675      1.0  0.69854  0.16067  0.43628  1.0000
  H   H676      1.0  0.80630  0.46810  0.48519  1.0000
  C   C380      1.0  0.74194  0.10073  0.37327  1.0000
  H   H677      1.0  0.82356  0.43325  0.44370  1.0000
  C   C381      1.0  0.82979  0.45731  0.49796  1.0000
  H   H678      1.0  0.52100  0.12708  0.60527  1.0000
  H   H679      1.0  0.56930  0.13398  0.61671  1.0000
  C   C382      1.0  0.48662  0.46365  0.45539  1.0000
  H   H680      1.0  0.50155  0.99914  0.59531  1.0000
  C   C383      1.0  0.85121  0.42763  0.45388  1.0000
  S   S89       1.0  0.95908  0.45546  0.42153  1.0000
  C   C384      1.0  0.95719  0.46203  0.45715  1.0000
  H   H681      1.0  0.85296  0.47896  0.49658  1.0000
  C   C385      1.0  0.97348  0.44439  0.50321  1.0000
  H   H682      1.0  0.58893  0.05919  0.61572  1.0000
  C   C386      1.0  0.80819  0.49158  0.53879  1.0000
  C   C387      1.0  0.67975  0.49049  0.59926  1.0000
  C   C388      1.0  0.78384  0.11302  0.33239  1.0000
  H   H683      1.0  0.49085  0.35775  0.46696  1.0000
  H   H684      1.0  0.48648  0.31282  0.48305  1.0000
  C   C389      1.0  0.97412  0.23354  0.38528  1.0000
  C   C390      1.0  0.93805  0.49376  0.46756  1.0000
  H   H685      1.0  0.98000  0.07901  0.41650  1.0000
  C   C391      1.0  0.97462  0.43716  0.47521  1.0000
  H   H686      1.0  0.54984  0.43436  0.81925  1.0000
  C   C392      1.0  0.80610  0.00655  0.80788  1.0000
  S   S90       1.0  0.55303  0.09192  0.84097  1.0000
  H   H687      1.0  0.89304  0.07880  0.94594  1.0000
  H   H688      1.0  0.73815  0.04369  0.79979  1.0000
  S   S91       1.0  0.56060  0.05933  0.90294  1.0000
  Fe  Fe46      1.0  0.52627  0.10339  0.88111  1.0000
  S   S92       1.0  0.51947  0.16184  0.89946  1.0000
  Fe  Fe47      1.0  0.58412  0.04423  0.86201  1.0000
  H   H689      1.0  0.50514  0.33298  0.72450  1.0000
  H   H690      1.0  0.53995  0.34949  0.94719  1.0000
  H   H691      1.0  0.53926  0.40413  0.77524  1.0000
  H   H692      1.0  0.56605  0.33909  0.78857  1.0000
  H   H693      1.0  0.55805  0.40331  0.71005  1.0000
  H   H694      1.0  0.50041  0.39560  0.79812  1.0000
  H   H695      1.0  0.59665  0.37342  0.69959  1.0000
  H   H696      1.0  0.58561  0.39899  0.81278  1.0000
  C   C393      1.0  0.52021  0.34752  0.74126  1.0000
  C   C394      1.0  0.55480  0.40356  0.81689  1.0000
  H   H697      1.0  0.67579  0.04516  0.95489  1.0000
  H   H698      1.0  0.52055  0.02516  0.76394  1.0000
  H   H699      1.0  0.58032  0.36472  0.74805  1.0000
  H   H700      1.0  0.50351  0.47853  0.74430  1.0000
  H   H701      1.0  0.50777  0.37633  0.74161  1.0000
  C   C395      1.0  0.56260  0.35062  0.73246  1.0000
  H   H702      1.0  0.51357  0.37846  0.98896  1.0000
  C   C396      1.0  0.66561  0.04251  0.93378  1.0000
  H   H703      1.0  0.52140  0.19541  0.70015  1.0000
  C   C397      1.0  0.56649  0.37356  0.70651  1.0000
  H   H704      1.0  0.55700  0.28545  0.76305  1.0000
  H   H705      1.0  0.54393  0.15351  0.73921  1.0000
  H   H706      1.0  0.49687  0.02629  0.96713  1.0000
  C   C398      1.0  0.53382  0.39513  0.97649  1.0000
  H   H707      1.0  0.61189  0.01811  0.94509  1.0000
  H   H708      1.0  0.51395  0.22912  0.66172  1.0000
  H   H709      1.0  0.93656  0.12923  0.97205  1.0000
  H   H710      1.0  0.54689  0.38940  0.83608  1.0000
  S   S93       1.0  0.53759  0.00158  0.85298  1.0000
  H   H711      1.0  0.49616  0.13920  0.74934  1.0000
  H   H712      1.0  0.74411  0.03008  0.76492  1.0000
  C   C399      1.0  0.86540  0.03523  0.82897  1.0000
  H   H713      1.0  0.54964  0.39633  0.93398  1.0000
  C   C400      1.0  0.53047  0.38860  0.79363  1.0000
  C   C401      1.0  0.49443  0.17862  0.69937  1.0000
  H   H714      1.0  0.85907  0.06348  0.82039  1.0000
  C   C402      1.0  0.68363  0.00518  0.86299  1.0000
  C   C403      1.0  0.50629  0.13737  0.70598  1.0000
  H   H715      1.0  0.53028  0.10452  0.73870  1.0000
  H   H716      1.0  0.51994  0.20185  0.80070  1.0000
  H   H717      1.0  0.62505  0.01155  0.91040  1.0000
  H   H718      1.0  0.89843  0.03010  0.95569  1.0000
  H   H719      1.0  0.50429  0.23896  0.91385  1.0000
  C   C404      1.0  0.52537  0.28691  0.76486  1.0000
  C   C405      1.0  0.49605  0.02710  0.72381  1.0000
  C   C406      1.0  0.57475  0.39140  0.98797  1.0000
  C   C407      1.0  0.53126  0.37960  0.94781  1.0000
  C   C408      1.0  0.49656  0.19863  0.88174  1.0000
  H   H720      1.0  0.72927  0.04559  0.86818  1.0000
  H   H721      1.0  0.51359  0.20855  0.76502  1.0000
  H   H722      1.0  0.85267  0.03309  0.84942  1.0000
  C   C409      1.0  0.51428  0.26041  0.78856  1.0000
  Fe  Fe48      1.0  0.50492  0.05042  0.83476  1.0000
  H   H723      1.0  0.57455  0.32221  0.72849  1.0000
  C   C410      1.0  0.89614  0.05948  0.96341  1.0000
  C   C411      1.0  0.68730  0.02333  0.78085  1.0000
  H   H724      1.0  0.51497  0.29637  0.67490  1.0000
  H   H725      1.0  0.58855  0.46311  0.96827  1.0000
  H   H726      1.0  0.51434  0.27438  0.74580  1.0000
  H   H727      1.0  0.55916  0.21924  0.78075  1.0000
  H   H728      1.0  0.52754  0.27006  0.80769  1.0000
  H   H729      1.0  0.77899  0.99751  0.87812  1.0000
  H   H730      1.0  0.59541  0.39999  0.97205  1.0000
  S   S94       1.0  0.64924  0.04075  0.85589  1.0000
  H   H731      1.0  0.52618  0.33269  0.80996  1.0000
  Fe  Fe49      1.0  0.51268  0.01916  0.89331  1.0000
  C   C412      1.0  0.52766  0.22009  0.78331  1.0000
  C   C413      1.0  0.73065  0.02213  0.78436  1.0000
  C   C414      1.0  0.53503  0.34531  0.79037  1.0000
  N   N23       1.0  0.51287  0.32743  0.76756  1.0000
  C   C415      1.0  0.97000  0.49098  0.95536  1.0000
  H   H732      1.0  0.89687  0.03232  0.83089  1.0000
  C   C416      1.0  0.93713  0.47394  0.96641  1.0000
  H   H733      1.0  0.54832  0.36154  0.69022  1.0000
  H   H734      1.0  0.65274  0.06978  0.92757  1.0000
  C   C417      1.0  0.84994  0.00398  0.81066  1.0000
  H   H735      1.0  0.80093  0.03430  0.79813  1.0000
  H   H736      1.0  0.50132  0.38166  0.94050  1.0000
  H   H737      1.0  0.86376  0.00776  0.79074  1.0000
  C   C418      1.0  0.49220  0.23410  0.89408  1.0000
  H   H738      1.0  0.80544  0.00413  0.75646  1.0000
  C   C419      1.0  0.93132  0.11076  0.98988  1.0000
  C   C420      1.0  0.93197  0.06933  0.97956  1.0000
  H   H739      1.0  0.94223  0.48455  0.75182  1.0000
  C   C421      1.0  0.63576  0.01107  0.93139  1.0000
  C   C422      1.0  0.49597  0.03289  0.75198  1.0000
  H   H740      1.0  0.87035  0.06123  0.97636  1.0000
  H   H741      1.0  0.53012  0.12841  0.69275  1.0000
  H   H742      1.0  0.51075  0.45642  0.69692  1.0000
  H   H743      1.0  0.52432  0.42482  0.97571  1.0000
  H   H744      1.0  0.62839  0.47251  0.99036  1.0000
  H   H745      1.0  0.67276  0.01515  0.79989  1.0000
  H   H746      1.0  0.69030  0.03682  0.92037  1.0000
  C   C423      1.0  0.72173  0.01593  0.86811  1.0000
  C   C424      1.0  0.51997  0.13368  0.73510  1.0000
  C   C425      1.0  0.59703  0.47482  0.98815  1.0000
  H   H747      1.0  0.57942  0.36061  0.99067  1.0000
  H   H748      1.0  0.95690  0.06505  0.96606  1.0000
  H   H749      1.0  0.52093  0.01497  0.71433  1.0000
  H   H750      1.0  0.67833  0.05244  0.77557  1.0000
  H   H751      1.0  0.91262  0.46878  0.95364  1.0000
  C   C426      1.0  0.48866  0.44453  0.70961  1.0000
  H   H752      1.0  0.67802  0.00394  0.76449  1.0000
  H   H753      1.0  0.79383  0.00860  0.82853  1.0000
  C   C427      1.0  0.48497  0.00008  0.97463  1.0000
  Fe  Fe50      1.0  0.57900  0.51150  0.09149  1.0000
  C   C428      1.0  0.94237  0.96981  0.14272  1.0000
  Fe  Fe51      1.0  0.53111  0.58448  0.09460  1.0000
  S   S95       1.0  0.54068  0.64805  0.09421  1.0000
  H   H754      1.0  0.53466  0.59530  0.18720  1.0000
  C   C429      1.0  0.50359  0.68115  0.08913  1.0000
  H   H755      1.0  0.95530  0.98375  0.12486  1.0000
  S   S96       1.0  0.56868  0.55403  0.12412  1.0000
  S   S97       1.0  0.54536  0.54470  0.06070  1.0000
  H   H756      1.0  0.55794  0.67748  0.03882  1.0000
  S   S98       1.0  0.93148  0.98878  0.29692  1.0000
  H   H757      1.0  0.64486  0.93924  0.29358  1.0000
  H   H758      1.0  0.71179  0.52795  0.02799  1.0000
  C   C430      1.0  0.90768  0.56345  0.01863  1.0000
  S   S99       1.0  0.50967  0.51198  0.18055  1.0000
  C   C431      1.0  0.50570  0.63723  0.16242  1.0000
  H   H759      1.0  0.68919  0.88578  0.28700  1.0000
  C   C432      1.0  0.54561  0.79952  0.28898  1.0000
  H   H760      1.0  0.90850  0.54105  0.13819  1.0000
  H   H761      1.0  0.54347  0.64380  0.19716  1.0000
  C   C433      1.0  0.48635  0.88349  0.22660  1.0000
  H   H762      1.0  0.63935  0.91834  0.26070  1.0000
  H   H763      1.0  0.92758  0.55506  0.17047  1.0000
  H   H764      1.0  0.66303  0.51331  0.02223  1.0000
  H   H765      1.0  0.90743  0.53730  0.00628  1.0000
  C   C434      1.0  0.63542  0.91346  0.28262  1.0000
  C   C435      1.0  0.76519  0.52450  0.20358  1.0000
  H   H766      1.0  0.87954  0.56599  0.02874  1.0000
  H   H767      1.0  0.94036  0.50997  0.15595  1.0000
  H   H768      1.0  0.56116  0.82520  0.28217  1.0000
  H   H769      1.0  0.60453  0.90870  0.28656  1.0000
  H   H770      1.0  0.64289  0.69786  0.04552  1.0000
  H   H771      1.0  0.91504  0.94986  0.03217  1.0000
  H   H772      1.0  0.56584  0.62484  0.16740  1.0000
  H   H773      1.0  0.53336  0.89468  0.00217  1.0000
  C   C436      1.0  0.96404  0.98940  0.24625  1.0000
  H   H774      1.0  0.91235  0.62350  0.01360  1.0000
  H   H775      1.0  0.76446  0.67402  0.07026  1.0000
  H   H776      1.0  0.50580  0.88797  0.26791  1.0000
  H   H777      1.0  0.96539  0.95485  0.15376  1.0000
  H   H778      1.0  0.93016  0.56091  0.03435  1.0000
  H   H779      1.0  0.51225  0.66601  0.15488  1.0000
  C   C437      1.0  0.88249  0.51229  0.17222  1.0000
  C   C438      1.0  0.53939  0.62454  0.17973  1.0000
  H   H780      1.0  0.50412  0.61756  0.14509  1.0000
  H   H781      1.0  0.67050  0.80294  0.29886  1.0000
  N   N24       1.0  0.65649  0.61943  0.06212  1.0000
  C   C439      1.0  0.64265  0.61772  0.09089  1.0000
  C   C440      1.0  0.62623  0.63813  0.04506  1.0000
  C   C441      1.0  0.66035  0.57924  0.05221  1.0000
  C   C442      1.0  0.69462  0.63928  0.05930  1.0000
  C   C443      1.0  0.70364  0.67145  0.07969  1.0000
  C   C444      1.0  0.66713  0.59325  0.11026  1.0000
  C   C445      1.0  0.67178  0.57431  0.02217  1.0000
  C   C446      1.0  0.61786  0.68019  0.05107  1.0000
  S   S100      1.0  0.97051  0.98899  0.06488  1.0000
  C   C447      1.0  0.73955  0.69326  0.07150  1.0000
  C   C448      1.0  0.66134  0.60443  0.13971  1.0000
  C   C449      1.0  0.68532  0.53412  0.01646  1.0000
  H   H782      1.0  0.61313  0.60598  0.09153  1.0000
  H   H783      1.0  0.63971  0.64633  0.09968  1.0000
  H   H784      1.0  0.63417  0.63742  0.02341  1.0000
  H   H785      1.0  0.59877  0.62213  0.04676  1.0000
  H   H786      1.0  0.63305  0.56353  0.05531  1.0000
  H   H787      1.0  0.68214  0.56384  0.06425  1.0000
  H   H788      1.0  0.71852  0.61877  0.06135  1.0000
  H   H789      1.0  0.69760  0.65108  0.03860  1.0000
  H   H790      1.0  0.70886  0.65961  0.10005  1.0000
  H   H791      1.0  0.68002  0.69189  0.08151  1.0000
  H   H792      1.0  0.65871  0.56309  0.10808  1.0000
  H   H793      1.0  0.69804  0.59544  0.10559  1.0000
  H   H794      1.0  0.69514  0.59389  0.01634  1.0000
  H   H795      1.0  0.64680  0.57971  0.00894  1.0000
  H   H796      1.0  0.61077  0.68492  0.07255  1.0000
  H   H797      1.0  0.72462  0.84083  0.30677  1.0000
  C   C450      1.0  0.91489  0.59792  0.00075  1.0000
  H   H798      1.0  0.86019  0.53428  0.17405  1.0000
  H   H799      1.0  0.78213  0.88418  0.30899  1.0000
  H   H800      1.0  0.90097  0.52315  0.21211  1.0000
  H   H801      1.0  0.74588  0.71539  0.08675  1.0000
  C   C451      1.0  0.65886  0.87936  0.29153  1.0000
  H   H802      1.0  0.63064  0.60313  0.14519  1.0000
  H   H803      1.0  0.67721  0.58464  0.15294  1.0000
  H   H804      1.0  0.67220  0.63350  0.14334  1.0000
  C   C452      1.0  0.50472  0.80025  0.27818  1.0000
  C   C453      1.0  0.58407  0.69425  0.03436  1.0000
  Fe  Fe52      1.0  0.51560  0.52129  0.13492  1.0000
  Fe  Fe53      1.0  0.49434  0.51137  0.07467  1.0000
  H   H805      1.0  0.50677  0.80143  0.25585  1.0000
  H   H806      1.0  0.66727  0.73143  0.29733  1.0000
  H   H807      1.0  0.56097  0.77427  0.28145  1.0000
  C   C454      1.0  0.50999  0.71934  0.09550  1.0000
  C   C455      1.0  0.55632  0.91596  0.99900  1.0000
  H   H808      1.0  0.84854  0.98893  0.23044  1.0000
  H   H809      1.0  0.57813  0.72420  0.03945  1.0000
  H   H810      1.0  0.73532  0.70725  0.05169  1.0000
  H   H811      1.0  0.92097  0.94867  0.13584  1.0000
  H   H812      1.0  0.53751  0.72815  0.10321  1.0000
  H   H813      1.0  0.59394  0.52982  0.00790  1.0000
  H   H814      1.0  0.91243  0.98350  0.17883  1.0000
  H   H815      1.0  0.97492  0.60130  0.00548  1.0000
  H   H816      1.0  0.64964  0.85496  0.27908  1.0000
  C   C456      1.0  0.93635  0.96114  0.01858  1.0000
  C   C457      1.0  0.91690  0.53074  0.15847  1.0000
  H   H817      1.0  0.51250  0.87071  0.21956  1.0000
  H   H818      1.0  0.83554  0.52708  0.22363  1.0000
  C   C458      1.0  0.48858  0.51860  0.23385  1.0000
  H   H819      1.0  0.59043  0.69231  0.01248  1.0000
  H   H820      1.0  0.96109  0.95903  0.24729  1.0000
  H   H821      1.0  0.54560  0.79915  0.31134  1.0000
  C   C459      1.0  0.96748  0.98172  0.02920  1.0000
  H   H822      1.0  0.57878  0.91154  0.01448  1.0000
  H   H823      1.0  0.54382  0.94446  0.00172  1.0000
  H   H824      1.0  0.51710  0.50853  0.23803  1.0000
  H   H825      1.0  0.77730  0.55351  0.20280  1.0000
  H   H826      1.0  0.49116  0.82645  0.28532  1.0000
  H   H827      1.0  0.49801  0.74050  0.27879  1.0000
  H   H828      1.0  0.87323  0.51777  0.26238  1.0000
  H   H829      1.0  0.49507  0.51801  0.00363  1.0000
  H   H830      1.0  0.75191  0.51960  0.22361  1.0000
  H   H831      1.0  0.92173  0.50808  0.25210  1.0000
  H   H832      1.0  0.74260  0.52210  0.18794  1.0000
  H   H833      1.0  0.63133  0.80028  0.32119  1.0000
  H   H834      1.0  0.69149  0.53082  0.99465  1.0000
  C   C460      1.0  0.89343  0.49742  0.20045  1.0000
  H   H835      1.0  0.48596  0.77557  0.09728  1.0000
  H   H836      1.0  0.48511  0.76240  0.30956  1.0000
  C   C461      1.0  0.65271  0.87108  0.32192  1.0000
  C   C462      1.0  0.66306  0.80288  0.32064  1.0000
  H   H837      1.0  0.80749  0.50040  0.17767  1.0000
  C   C463      1.0  0.66265  0.73129  0.31948  1.0000
  H   H838      1.0  0.62172  0.86543  0.32444  1.0000
  H   H839      1.0  0.91571  0.50447  0.30118  1.0000
  H   H840      1.0  0.48474  0.75484  0.15004  1.0000
  C   C464      1.0  0.79627  0.49531  0.19817  1.0000
  C   C465      1.0  0.89512  0.49541  0.26035  1.0000
  C   C466      1.0  0.82795  0.49689  0.22018  1.0000
  H   H841      1.0  0.63149  0.73014  0.32371  1.0000
  Fe  Fe54      1.0  0.92908  0.55741  0.63578  1.0000
  S   S101      1.0  0.87889  0.59557  0.62827  1.0000
  Fe  Fe55      1.0  0.92709  0.52865  0.57660  1.0000
  S   S102      1.0  0.87828  0.56678  0.56572  1.0000
  Fe  Fe56      1.0  0.90889  0.61174  0.58993  1.0000
  S   S103      1.0  0.90875  0.67460  0.57887  1.0000
  Fe  Fe57      1.0  0.85184  0.54741  0.60494  1.0000
  H   H842      1.0  0.72057  0.90739  0.32753  1.0000
  S   S104      1.0  0.95980  0.57514  0.59774  1.0000
  H   H843      1.0  0.52104  0.80053  0.46618  1.0000
  S   S105      1.0  0.78611  0.53921  0.60578  1.0000
  H   H844      1.0  0.60698  0.84669  0.36545  1.0000
  Fe  Fe58      1.0  0.52142  0.84998  0.36680  1.0000
  S   S106      1.0  0.53130  0.78644  0.36855  1.0000
  Fe  Fe59      1.0  0.56107  0.92697  0.36051  1.0000
  S   S107      1.0  0.50443  0.95764  0.36059  1.0000
  H   H845      1.0  0.92926  0.91922  0.44677  1.0000
  H   H846      1.0  0.96086  0.79091  0.47393  1.0000
  H   H847      1.0  0.73468  0.82281  0.33915  1.0000
  C   C467      1.0  0.73487  0.88340  0.33765  1.0000
  S   S108      1.0  0.54643  0.89124  0.39687  1.0000
  C   C468      1.0  0.96640  0.77386  0.58835  1.0000
  H   H848      1.0  0.83441  0.50501  0.54711  1.0000
  H   H849      1.0  0.62102  0.79801  0.36613  1.0000
  C   C469      1.0  0.66324  0.96394  0.36155  1.0000
  C   C470      1.0  0.68059  0.76627  0.33244  1.0000
  H   H850      1.0  0.94788  0.81711  0.64606  1.0000
  H   H851      1.0  0.90270  0.88883  0.48862  1.0000
  H   H852      1.0  0.96308  0.77352  0.53456  1.0000
  H   H853      1.0  0.94915  0.70681  0.52234  1.0000
  H   H854      1.0  0.53880  0.82829  0.43850  1.0000
  S   S109      1.0  0.89721  0.97070  0.37055  1.0000
  H   H855      1.0  0.92213  0.52553  0.50318  1.0000
  H   H856      1.0  0.73192  0.88694  0.35973  1.0000
  C   C471      1.0  0.50039  0.94977  0.63673  1.0000
  C   C472      1.0  0.94646  0.70779  0.58335  1.0000
  C   C473      1.0  0.93747  0.74631  0.58553  1.0000
  N   N25       1.0  0.51967  0.94461  0.60974  1.0000
  H   H857      1.0  0.90786  0.75488  0.58511  1.0000
  H   H858      1.0  0.95888  0.80326  0.59000  1.0000
  C   C474      1.0  0.96423  0.98450  0.46733  1.0000
  C   C475      1.0  0.94966  0.85067  0.52906  1.0000
  S   S110      1.0  0.78882  0.97277  0.39005  1.0000
  H   H859      1.0  0.65800  0.89757  0.33323  1.0000
  C   C476      1.0  0.49919  0.71505  0.37088  1.0000
  H   H860      1.0  0.54673  0.89007  0.61278  1.0000
  H   H861      1.0  0.52822  0.70478  0.37028  1.0000
  C   C477      1.0  0.79126  0.52174  0.51942  1.0000
  H   H862      1.0  0.88832  0.84374  0.51870  1.0000
  S   S111      1.0  0.95482  0.95909  0.55865  1.0000
  C   C478      1.0  0.69016  0.98447  0.34629  1.0000
  N   N26       1.0  0.67580  0.83928  0.33368  1.0000
  S   S112      1.0  0.54069  0.88316  0.33055  1.0000
  H   H863      1.0  0.70469  0.54648  0.59892  1.0000
  H   H864      1.0  0.92343  0.87501  0.42916  1.0000
  H   H865      1.0  0.54257  0.98214  0.57902  1.0000
  C   C479      1.0  0.71047  0.51662  0.60067  1.0000
  C   C480      1.0  0.61801  0.89573  0.59557  1.0000
  H   H866      1.0  0.60285  0.95411  0.59745  1.0000
  C   C481      1.0  0.48552  0.91345  0.65080  1.0000
  H   H867      1.0  0.76868  0.51021  0.50616  1.0000
  C   C482      1.0  0.58819  0.92692  0.59322  1.0000
  H   H868      1.0  0.90856  0.73654  0.51644  1.0000
  C   C483      1.0  0.49123  0.92574  0.59114  1.0000
  C   C484      1.0  0.55481  0.92052  0.61340  1.0000
  H   H869      1.0  0.52661  0.89461  0.56234  1.0000
  C   C485      1.0  0.74070  0.97020  0.37843  1.0000
  H   H870      1.0  0.86272  0.79661  0.65055  1.0000
  C   C486      1.0  0.66933  0.83857  0.36376  1.0000
  C   C487      1.0  0.62872  0.82677  0.37314  1.0000
  H   H871      1.0  0.57526  0.99293  0.62859  1.0000
  H   H872      1.0  0.93771  0.72090  0.48837  1.0000
  C   C488      1.0  0.71375  0.94977  0.39373  1.0000
  H   H873      1.0  0.91968  0.79764  0.49359  1.0000
  C   C489      1.0  0.62601  0.82662  0.40386  1.0000
  C   C490      1.0  0.52857  0.98351  0.59901  1.0000
  H   H874      1.0  0.52322  0.78047  0.43257  1.0000
  H   H875      1.0  0.64204  0.90162  0.58155  1.0000
  N   N27       1.0  0.96620  0.83656  0.50276  1.0000
  H   H876      1.0  0.79577  0.56831  0.54810  1.0000
  C   C491      1.0  0.96374  0.76499  0.51317  1.0000
  S   S113      1.0  0.61528  0.96066  0.34962  1.0000
  C   C492      1.0  0.77740  0.88626  0.33106  1.0000
  H   H877      1.0  0.69039  0.81986  0.37387  1.0000
  H   H878      1.0  0.67465  0.86704  0.37250  1.0000
  H   H879      1.0  0.67595  0.70546  0.32795  1.0000
  C   C493      1.0  0.71792  0.84486  0.32850  1.0000
  H   H880      1.0  0.62953  0.89436  0.61641  1.0000
  C   C494      1.0  0.49243  0.75417  0.37041  1.0000
  C   C495      1.0  0.95947  0.96819  0.52343  1.0000
  C   C496      1.0  0.92925  0.98713  0.48080  1.0000
  H   H881      1.0  0.88233  0.89948  0.44216  1.0000
  H   H882      1.0  0.57850  0.92790  0.57204  1.0000
  H   H883      1.0  0.90672  0.80810  0.54062  1.0000
  C   C497      1.0  0.91614  0.87114  0.47278  1.0000
  H   H884      1.0  0.60531  0.86794  0.59013  1.0000
  H   H885      1.0  0.63132  0.85538  0.41204  1.0000
  H   H886      1.0  0.59691  0.81744  0.40996  1.0000
  H   H887      1.0  0.64693  0.80662  0.41265  1.0000
  C   C498      1.0  0.67530  0.94658  0.38536  1.0000
  H   H888      1.0  0.90964  0.85352  0.57827  1.0000
  H   H889      1.0  0.95124  0.88209  0.52987  1.0000
  H   H890      1.0  0.67597  0.76401  0.35447  1.0000
  H   H891      1.0  0.74973  0.54500  0.54755  1.0000
  H   H892      1.0  0.97384  0.85490  0.46157  1.0000
  C   C499      1.0  0.77403  0.55481  0.53492  1.0000
  H   H893      1.0  0.56736  0.92486  0.63383  1.0000
  H   H894      1.0  0.76330  0.57633  0.52057  1.0000
  C   C500      1.0  0.51749  0.80653  0.44437  1.0000
  H   H895      1.0  0.88500  0.82607  0.62541  1.0000
  H   H896      1.0  0.89343  0.89108  0.55639  1.0000
  H   H897      1.0  0.65497  0.93089  0.39741  1.0000
  H   H898      1.0  0.96998  0.89255  0.48512  1.0000
  H   H899      1.0  0.51646  0.94246  0.55190  1.0000
  H   H900      1.0  0.97833  0.71423  0.64077  1.0000
  H   H901      1.0  0.78864  0.91399  0.33808  1.0000
  Fe  Fe60      1.0  0.48875  0.91933  0.39522  1.0000
  H   H902      1.0  0.81429  0.53317  0.50629  1.0000
  C   C501      1.0  0.89260  0.86012  0.56006  1.0000
  C   C502      1.0  0.93812  0.73028  0.50973  1.0000
  H   H903      1.0  0.89961  0.84466  0.47044  1.0000
  S   S114      1.0  0.90006  0.50768  0.61539  1.0000
  H   H904      1.0  0.72272  0.93627  0.41222  1.0000
  C   C503      1.0  0.90799  0.83866  0.53571  1.0000
  S   S115      1.0  0.97522  0.87996  0.60970  1.0000
  C   C504      1.0  0.95851  0.86407  0.48014  1.0000
  H   H905      1.0  0.86255  0.85158  0.56391  1.0000
  C   C505      1.0  0.91272  0.89249  0.44611  1.0000
  H   H906      1.0  0.52014  0.96372  0.65127  1.0000
  H   H907      1.0  0.92444  0.51322  0.45382  1.0000
  H   H908      1.0  0.92667  0.77280  0.63672  1.0000
  H   H909      1.0  0.96723  0.84111  0.54651  1.0000
  H   H910      1.0  0.52514  0.99179  0.50292  1.0000
  C   C506      1.0  0.95126  0.79807  0.49472  1.0000
  H   H911      1.0  0.65085  0.50044  0.59652  1.0000
  H   H912      1.0  0.89971  0.98109  0.51880  1.0000
  C   C507      1.0  0.49239  0.96628  0.47076  1.0000
  H   H913      1.0  0.51712  0.95998  0.45855  1.0000
  H   H914      1.0  0.92689  0.71275  0.64402  1.0000
  H   H915      1.0  0.71178  0.76541  0.32854  1.0000
  S   S116      1.0  0.96892  0.99339  0.43208  1.0000
  C   C508      1.0  0.49682  0.98430  0.49596  1.0000
  C   C509      1.0  0.50472  0.91715  0.56207  1.0000
  C   C510      1.0  0.93663  0.50082  0.49557  1.0000
  C   C511      1.0  0.72863  0.98762  0.35463  1.0000
  H   H916      1.0  0.79359  0.86366  0.34148  1.0000
  H   H917      1.0  0.50776  0.89127  0.65135  1.0000
  C   C512      1.0  0.92502  0.79643  0.65102  1.0000
  C   C513      1.0  0.95429  0.70388  0.65319  1.0000
  C   C514      1.0  0.74846  0.50456  0.60436  1.0000
  H   H918      1.0  0.95281  0.65160  0.63043  1.0000
  C   C515      1.0  0.95546  0.66086  0.65172  1.0000
  C   C516      1.0  0.88689  0.81627  0.64663  1.0000
  C   C517      1.0  0.92694  0.97897  0.50863  1.0000
  H   H919      1.0  0.90393  0.99517  0.46974  1.0000
  H   H920      1.0  0.58601  0.96975  0.96442  1.0000
  H   H921      1.0  0.96363  0.63463  0.76126  1.0000
  Fe  Fe61      1.0  0.90211  0.85157  0.87984  1.0000
  H   H922      1.0  0.64595  0.95790  0.85706  1.0000
  S   S117      1.0  0.90085  0.78690  0.88196  1.0000
  Fe  Fe62      1.0  0.84067  0.91365  0.87989  1.0000
  S   S118      1.0  0.88478  0.95966  0.87517  1.0000
  S   S119      1.0  0.77484  0.91466  0.88116  1.0000
  Fe  Fe63      1.0  0.91290  0.92176  0.84429  1.0000
  S   S120      1.0  0.93412  0.94939  0.80499  1.0000
  Fe  Fe64      1.0  0.91967  0.92858  0.90646  1.0000
  C   C518      1.0  0.90366  0.58887  0.90406  1.0000
  S   S121      1.0  0.86662  0.87796  0.84709  1.0000
  S   S122      1.0  0.87363  0.88471  0.91312  1.0000
  C   C519      1.0  0.57288  0.91174  0.97066  1.0000
  C   C520      1.0  0.91150  0.59870  0.93354  1.0000
  C   C521      1.0  0.55680  0.90721  0.88055  1.0000
  H   H923      1.0  0.73321  0.97856  0.81470  1.0000
  C   C522      1.0  0.92934  0.78260  0.68046  1.0000
  C   C523      1.0  0.95426  0.60759  0.93844  1.0000
  H   H924      1.0  0.61535  0.95239  0.89739  1.0000
  C   C524      1.0  0.74068  0.95030  0.87382  1.0000
  C   C525      1.0  0.93029  0.72867  0.95564  1.0000
  H   H925      1.0  0.82544  0.95361  0.71262  1.0000
  C   C526      1.0  0.96071  0.68944  0.87310  1.0000
  H   H926      1.0  0.90845  0.93888  0.98283  1.0000
  C   C527      1.0  0.97555  0.76728  0.86921  1.0000
  H   H927      1.0  0.85838  0.65646  0.74570  1.0000
  C   C528      1.0  0.79364  0.93811  0.80664  1.0000
  H   H928      1.0  0.92035  0.56372  0.89797  1.0000
  C   C529      1.0  0.93691  0.89193  0.76651  1.0000
  C   C530      1.0  0.94155  0.93036  0.77220  1.0000
  H   H929      1.0  0.76502  0.84345  0.79964  1.0000
  N   N28       1.0  0.96438  0.62415  0.96557  1.0000
  C   C531      1.0  0.95195  0.52052  0.71731  1.0000
  C   C532      1.0  0.93149  0.71595  0.87763  1.0000
  H   H930      1.0  0.85586  0.72626  0.82370  1.0000
  H   H931      1.0  0.95602  0.98462  0.75530  1.0000
  C   C533      1.0  0.75004  0.98873  0.87365  1.0000
  S   S123      1.0  0.48810  0.97344  0.92152  1.0000
  C   C534      1.0  0.95612  0.90241  0.71947  1.0000
  C   C535      1.0  0.70076  0.86231  0.96000  1.0000
  H   H932      1.0  0.89305  0.62293  0.93872  1.0000
  C   C536      1.0  0.96718  0.62586  0.78255  1.0000
  H   H933      1.0  0.78479  0.86593  0.82907  1.0000
  C   C537      1.0  0.95229  0.76314  0.76580  1.0000
  H   H934      1.0  0.89194  0.67055  0.83956  1.0000
  H   H935      1.0  0.60858  0.88440  0.89594  1.0000
  C   C538      1.0  0.93872  0.75497  0.87574  1.0000
  C   C539      1.0  0.58463  0.90159  0.90389  1.0000
  C   C540      1.0  0.89274  0.62773  0.71648  1.0000
  H   H936      1.0  0.84835  0.64413  0.84351  1.0000
  H   H937      1.0  0.94057  0.84837  0.73626  1.0000
  H   H938      1.0  0.66409  0.89908  0.98245  1.0000
  H   H939      1.0  0.94040  0.55935  0.81131  1.0000
  C   C541      1.0  0.94404  0.87814  0.74030  1.0000
  H   H940      1.0  0.90303  0.57369  0.94567  1.0000
  H   H941      1.0  0.90300  0.53145  0.84897  1.0000
  H   H942      1.0  0.69530  0.90984  0.86780  1.0000
  S   S124      1.0  0.95051  0.89334  0.87509  1.0000
  H   H943      1.0  0.90509  0.54286  0.78754  1.0000
  H   H944      1.0  0.96082  0.56708  0.98117  1.0000
  H   H945      1.0  0.89902  0.72365  0.95705  1.0000
  H   H946      1.0  0.90277  0.76698  0.68592  1.0000
  C   C542      1.0  0.64934  0.90341  0.93936  1.0000
  C   C543      1.0  0.65328  0.97198  0.93791  1.0000
  H   H947      1.0  0.98207  0.79488  0.72024  1.0000
  H   H948      1.0  0.54674  0.87935  0.87305  1.0000
  C   C544      1.0  0.95923  0.50746  0.74370  1.0000
  H   H949      1.0  0.49777  0.93241  0.69187  1.0000
  H   H950      1.0  0.54870  0.91412  0.95627  1.0000
  C   C545      1.0  0.59994  0.93997  0.91477  1.0000
  H   H951      1.0  0.92898  0.80896  0.69274  1.0000
  H   H952      1.0  0.72815  0.96162  0.78118  1.0000
  C   C546      1.0  0.93980  0.75654  0.73662  1.0000
  H   H953      1.0  0.66879  0.97538  0.95735  1.0000
  H   H954      1.0  0.66554  0.90146  0.92003  1.0000
  H   H955      1.0  0.63107  0.87779  0.94002  1.0000
  C   C547      1.0  0.78397  0.86665  0.80669  1.0000
  H   H956      1.0  0.97867  0.70046  0.69325  1.0000
  C   C548      1.0  0.74396  0.98254  0.79373  1.0000
  H   H957      1.0  0.91104  0.61295  0.89073  1.0000
  H   H958      1.0  0.70010  0.92240  0.96228  1.0000
  H   H959      1.0  0.57099  0.92235  0.86368  1.0000
  H   H960      1.0  0.87236  0.60438  0.71207  1.0000
  H   H961      1.0  0.96944  0.58059  0.93533  1.0000
  H   H962      1.0  0.58535  0.88315  0.96929  1.0000
  H   H963      1.0  0.96906  0.59487  0.78303  1.0000
  C   C549      1.0  0.70276  0.93951  0.86815  1.0000
  H   H964      1.0  0.67561  0.96673  0.92233  1.0000
  H   H965      1.0  0.88785  0.65061  0.70163  1.0000
  C   C550      1.0  0.97296  0.76511  0.71672  1.0000
  H   H966      1.0  0.87290  0.58214  0.90139  1.0000
  H   H967      1.0  0.57513  0.95900  0.91833  1.0000
  S   S125      1.0  0.96660  0.56771  0.67330  1.0000
  H   H968      1.0  0.68104  0.83768  0.96090  1.0000
  H   H969      1.0  0.71681  0.86165  0.94067  1.0000
  H   H970      1.0  0.92814  0.87282  0.78237  1.0000
  H   H971      1.0  0.78863  0.94128  0.82862  1.0000
  C   C551      1.0  0.97399  0.54979  0.70641  1.0000
  H   H972      1.0  0.72162  0.85997  0.97678  1.0000
  H   H973      1.0  0.93358  0.67141  0.79750  1.0000
  H   H974      1.0  0.82400  0.92960  0.80528  1.0000
  H   H975      1.0  0.92923  0.70915  0.69220  1.0000
  H   H976      1.0  0.81148  0.69980  0.82606  1.0000
  H   H977      1.0  0.92235  0.61716  0.71396  1.0000
  H   H978      1.0  0.90317  0.70626  0.88298  1.0000
  C   C552      1.0  0.60263  0.94308  0.96483  1.0000
  C   C553      1.0  0.67866  0.89926  0.96261  1.0000
  H   H979      1.0  0.96136  0.79296  0.76881  1.0000
  S   S126      1.0  0.96709  0.88273  0.68736  1.0000
  N   N29       1.0  0.96425  0.75929  0.68716  1.0000
  H   H980      1.0  0.87032  0.67899  0.78905  1.0000
  S   S127      1.0  0.96943  0.50484  0.92082  1.0000
  H   H981      1.0  0.81310  0.86176  0.79859  1.0000
  H   H982      1.0  0.73915  0.90732  0.80522  1.0000
  S   S128      1.0  0.95603  0.96325  0.93675  1.0000
  C   C554      1.0  0.93375  0.64017  0.80022  1.0000
  H   H983      1.0  0.85862  0.97669  0.81949  1.0000
  C   C555      1.0  0.95982  0.96903  0.97255  1.0000
  H   H984      1.0  0.83888  0.71044  0.85593  1.0000
  C   C556      1.0  0.88692  0.64287  0.74501  1.0000
  C   C557      1.0  0.76851  0.90449  0.79695  1.0000
  H   H985      1.0  0.83584  0.64306  0.79541  1.0000
  H   H986      1.0  0.60512  0.53148  0.97243  1.0000
  H   H987      1.0  0.93540  0.74999  0.93958  1.0000
  H   H988      1.0  0.92954  0.50775  0.70532  1.0000
  C   C558      1.0  0.67454  0.96670  0.86245  1.0000
  H   H989      1.0  0.91488  0.77500  0.73271  1.0000
  C   C559      1.0  0.95670  0.71770  0.68274  1.0000
  H   H990      1.0  0.93983  0.68247  0.92890  1.0000
  H   H991      1.0  0.56987  0.88498  0.91965  1.0000
  N   N30       1.0  0.89449  0.62340  0.79502  1.0000
  C   C560      1.0  0.88876  0.61078  0.76622  1.0000
  C   C561      1.0  0.88673  0.59033  0.81352  1.0000
  C   C562      1.0  0.86493  0.65314  0.80126  1.0000
  H   H992      1.0  0.90880  0.66486  0.74901  1.0000
  C   C563      1.0  0.93254  0.95476  0.99054  1.0000
  H   H993      1.0  0.94217  0.63598  0.82168  1.0000
  C   C564      1.0  0.86299  0.66598  0.83116  1.0000
  C   C565      1.0  0.90972  0.55390  0.80820  1.0000
  C   C566      1.0  0.89821  0.52252  0.82777  1.0000
  N   N31       1.0  0.62570  0.93898  0.93933  1.0000
  H   H994      1.0  0.98182  0.69931  0.94626  1.0000
  C   C567      1.0  0.84086  0.70283  0.83425  1.0000
  H   H995      1.0  0.86163  0.59434  0.76433  1.0000
  H   H996      1.0  0.91135  0.59070  0.75988  1.0000
  H   H997      1.0  0.89265  0.59813  0.83486  1.0000
  H   H998      1.0  0.85588  0.58242  0.81260  1.0000
  C   C568      1.0  0.79908  0.97483  0.76334  1.0000
  C   C569      1.0  0.95986  0.94097  0.72499  1.0000
  H   H999      1.0  0.76651  0.90372  0.77465  1.0000
  N   N32       1.0  0.78647  0.97517  0.79251  1.0000
  H   H1000     1.0  0.53152  0.92349  0.88721  1.0000
  H   H1001     1.0  0.92807  0.75717  0.77963  1.0000
  H   H1002     1.0  0.82587  0.91938  0.75691  1.0000
  H   H1003     1.0  0.86773  0.51466  0.82496  1.0000
  H   H1004     1.0  0.96493  0.62593  0.92184  1.0000
  H   H1005     1.0  0.62173  0.94597  0.98263  1.0000
  H   H1006     1.0  0.77548  0.96496  0.74998  1.0000
  C   C570      1.0  0.95275  0.95478  0.75121  1.0000
  C   C571      1.0  0.58765  0.51692  0.98797  1.0000
  H   H1007     1.0  0.95492  0.65957  0.87468  1.0000
  C   C572      1.0  0.95113  0.69217  0.94857  1.0000
  H   H1008     1.0  0.93042  0.72674  0.73493  1.0000
  C   C573      1.0  0.83398  0.94968  0.75612  1.0000
  H   H1009     1.0  0.85820  0.95367  0.77014  1.0000
  H   H1010     1.0  0.89190  0.59891  0.98553  1.0000
  H   H1011     1.0  0.97629  0.74418  0.77123  1.0000
  C   C574      1.0  0.95538  0.59656  0.98804  1.0000
  C   C575      1.0  0.94466  0.66141  0.97039  1.0000
  H   H1012     1.0  0.98156  0.79720  0.86778  1.0000
  H   H1013     1.0  0.94096  0.74037  0.97501  1.0000
  H   H1014     1.0  0.91596  0.49715  0.82389  1.0000
  H   H1015     1.0  0.91331  0.65782  0.97205  1.0000
  H   H1016     1.0  0.87228  0.93828  0.72281  1.0000
  H   H1017     1.0  0.49725  0.50604  0.95417  1.0000
  C   C576      1.0  0.84853  0.95783  0.72769  1.0000
  H   H1018     1.0  0.95381  0.67329  0.99019  1.0000
  H   H1019     1.0  0.55711  0.52130  0.98305  1.0000
  H   H1020     1.0  0.93154  0.64815  0.66325  1.0000
  H   H1021     1.0  0.96829  0.96011  0.70910  1.0000
  H   H1022     1.0  0.85959  0.98721  0.72631  1.0000
  H   H1023     1.0  0.98298  0.65008  0.65968  1.0000
  H   H1024     1.0  0.88460  0.84127  0.66007  1.0000
