data_image0
_chemical_formula_structural       HFeSCHC2H4SCSCHSH2NC2HFeHC6HCH4C2H2CH4CH2C2HCHCH6SFeH2C2HCH2SH3CH3CH2C3FeH2FeS2FeHSCHC6H2SHC4HNH2C2H2CHCH9CH3C2HCHCH2CH3CSHCHSHCHCH2SHCHSCHCNCHCH2CH2CHCHCH5CH4CHC2H2SH2CFeH6SC6H4SH8CH7FeHSH2NC10HCH3CH9CSFeS2FeSFeSFeS3C6H7CH4CH7NH5CHCH3CHSNCHC5H2C2H9CH10C2H2CH3C2H2CHCH3CH3CHC2H3CH2CHCHCH2CSFeH2FeS2FeHS2HSCSC7H3NC2HC4HSC2H14CH2FeHNH5SFeSHCHCH2CH2FeHCH3SH11SCHFeH3C2H2CHFeCH3C2H3CNFeCH3SHCH2CHC2H2CH2C3NCHC4HCH11CH2C2H3SH3CHCSH3CSH3CH2SH2FeH3CH2CSC2FeH2SC2HC5H5CH2SHCH3CH3CH2CH2C3FeC2SFeSH6C2HNC2HSHCHC2HCH3CH3CH6CHCH3FeH2CH2CHSHCHCHCH2CH5CHCH3C2H2SH6CHC3NH6CH2CHCH2CH3CH2C2HC2HC3HCH6C3H4C2H3CH3NH3NCSHCH3SCSCHC7HCH4C2H4C2H2CHFeH2C3SH2C2HCNHCHC2HCHCH12C2SFeCH3CFeS2FeSFeSFeHS2C2H3C6H4C2NC2H6CH5CSH3
_chemical_formula_sum              "H512 Fe32 S64 C288 N16"
_cell_length_a       26.814
_cell_length_b       26.987
_cell_length_c       36.3752
_cell_angle_alpha    90.0807
_cell_angle_beta     89.8345
_cell_angle_gamma    89.9298

_space_group_name_H-M_alt    "P 1"
_space_group_IT_number       1

loop_
  _space_group_symop_operation_xyz
  'x, y, z'

loop_
  _atom_site_type_symbol
  _atom_site_label
  _atom_site_symmetry_multiplicity
  _atom_site_fract_x
  _atom_site_fract_y
  _atom_site_fract_z
  _atom_site_occupancy
  H   H1        1.0  0.23653  0.01320  0.03471  1.0000
  Fe  Fe1       1.0  0.08504  0.15917  0.14301  1.0000
  S   S1        1.0  0.13475  0.09320  0.13028  1.0000
  C   C1        1.0  0.03153  0.42038  0.14036  1.0000
  H   H2        1.0  0.01714  0.08903  0.34325  1.0000
  C   C2        1.0  0.17353  0.09384  0.09093  1.0000
  C   C3        1.0  0.19062  0.13831  0.07589  1.0000
  H   H3        1.0  0.23963  0.17225  0.03621  1.0000
  H   H4        1.0  0.14120  0.41758  0.20403  1.0000
  H   H5        1.0  0.17829  0.17327  0.08740  1.0000
  H   H6        1.0  0.10408  0.05314  0.25956  1.0000
  S   S2        1.0  0.05291  0.21127  0.10136  1.0000
  C   C4        1.0  0.27030  0.04847  0.26989  1.0000
  S   S3        1.0  0.10105  0.34332  0.13532  1.0000
  C   C5        1.0  0.12314  0.41593  0.23153  1.0000
  H   H7        1.0  0.30046  0.05465  0.24949  1.0000
  S   S4        1.0  0.09697  0.21823  0.18570  1.0000
  H   H8        1.0  0.38175  0.03591  0.09922  1.0000
  H   H9        1.0  0.00206  0.02680  0.29596  1.0000
  N   N1        1.0  0.19957  0.03528  0.22228  1.0000
  C   C6        1.0  0.17257  0.08208  0.23360  1.0000
  C   C7        1.0  0.23223  0.04487  0.18891  1.0000
  H   H10       1.0  0.11221  0.33668  0.22475  1.0000
  Fe  Fe2       1.0  0.01945  0.20058  0.20580  1.0000
  H   H11       1.0  0.19900  0.11214  0.24065  1.0000
  C   C8        1.0  0.13595  0.07759  0.26651  1.0000
  C   C9        1.0  0.23000  0.01403  0.25341  1.0000
  C   C10       1.0  0.11436  0.12831  0.27639  1.0000
  C   C11       1.0  0.10395  0.49436  0.13028  1.0000
  C   C12       1.0  0.11733  0.44377  0.12999  1.0000
  C   C13       1.0  0.00151  0.01526  0.32525  1.0000
  H   H12       1.0  0.15083  0.09671  0.20984  1.0000
  C   C14       1.0  0.24239  0.09259  0.03199  1.0000
  H   H13       1.0  0.08607  0.12467  0.29853  1.0000
  H   H14       1.0  0.21066  0.03955  0.16316  1.0000
  H   H15       1.0  0.13187  0.01501  0.19349  1.0000
  H   H16       1.0  0.00202  0.01533  0.18315  1.0000
  C   C15       1.0  0.01806  0.47102  0.14026  1.0000
  C   C16       1.0  0.09218  0.46388  0.23813  1.0000
  H   H17       1.0  0.14648  0.44129  0.30713  1.0000
  H   H18       1.0  0.26302  0.01719  0.18740  1.0000
  C   C17       1.0  0.08133  0.40641  0.13510  1.0000
  H   H19       1.0  0.15491  0.06298  0.29129  1.0000
  H   H20       1.0  0.32312  0.05060  0.31504  1.0000
  H   H21       1.0  0.00339  0.39216  0.14428  1.0000
  H   H22       1.0  0.27257  0.09076  0.12660  1.0000
  C   C18       1.0  0.22539  0.13763  0.04685  1.0000
  H   H23       1.0  0.32331  0.07395  0.15715  1.0000
  H   H24       1.0  0.06402  0.45619  0.25996  1.0000
  C   C19       1.0  0.29455  0.02513  0.30364  1.0000
  C   C20       1.0  0.19025  0.04872  0.07600  1.0000
  H   H25       1.0  0.15592  0.43342  0.12576  1.0000
  C   C21       1.0  0.22394  0.04803  0.04619  1.0000
  H   H26       1.0  0.27461  0.10990  0.20985  1.0000
  C   C22       1.0  0.29176  0.09992  0.15274  1.0000
  H   H27       1.0  0.09588  0.14492  0.25205  1.0000
  H   H28       1.0  0.05370  0.03914  0.08886  1.0000
  H   H29       1.0  0.17700  0.01433  0.08761  1.0000
  H   H30       1.0  0.22496  0.12494  0.17889  1.0000
  H   H31       1.0  0.25453  0.08453  0.27871  1.0000
  H   H32       1.0  0.30690  0.13808  0.15030  1.0000
  S   S5        1.0  0.00242  0.19548  0.26709  1.0000
  Fe  Fe3       1.0  0.05941  0.27020  0.14561  1.0000
  H   H33       1.0  0.14413  0.15374  0.28603  1.0000
  H   H34       1.0  0.15305  0.41059  0.25192  1.0000
  C   C23       1.0  0.25496  0.09760  0.18478  1.0000
  C   C24       1.0  0.04982  0.00323  0.10352  1.0000
  H   H35       1.0  0.36155  0.00534  0.05787  1.0000
  C   C25       1.0  0.08994  0.36989  0.23240  1.0000
  H   H36       1.0  0.31716  0.03886  0.08569  1.0000
  H   H37       1.0  0.07420  0.36417  0.26035  1.0000
  S   S6        1.0  0.01119  0.13704  0.16691  1.0000
  H   H38       1.0  0.05886  0.37342  0.21244  1.0000
  H   H39       1.0  0.07047  0.46852  0.21223  1.0000
  H   H40       1.0  0.07122  0.05092  0.33723  1.0000
  C   C26       1.0  0.16522  0.47784  0.30523  1.0000
  H   H41       1.0  0.05907  0.00887  0.13288  1.0000
  H   H42       1.0  0.20541  0.00098  0.27612  1.0000
  H   H43       1.0  0.19211  0.48063  0.22987  1.0000
  C   C27       1.0  0.35069  0.01482  0.08654  1.0000
  H   H44       1.0  0.26623  0.01796  0.32534  1.0000
  H   H45       1.0  0.20046  0.47395  0.28952  1.0000
  C   C28       1.0  0.03242  0.05152  0.34802  1.0000
  C   C29       1.0  0.16019  0.99768  0.21195  1.0000
  C   C30       1.0  0.17902  0.49309  0.34441  1.0000
  Fe  Fe4       1.0  0.11952  0.27115  0.65670  1.0000
  H   H46       1.0  0.41905  0.10860  0.53321  1.0000
  H   H47       1.0  0.41235  0.03330  0.50693  1.0000
  Fe  Fe5       1.0  0.20138  0.20046  0.63045  1.0000
  S   S7        1.0  0.16442  0.13376  0.65443  1.0000
  S   S8        1.0  0.27321  0.18108  0.60092  1.0000
  Fe  Fe6       1.0  0.09451  0.16534  0.63038  1.0000
  H   H48       1.0  0.47430  0.03818  0.56202  1.0000
  S   S9        1.0  0.13218  0.23003  0.60315  1.0000
  C   C31       1.0  0.06048  0.44662  0.66889  1.0000
  H   H49       1.0  0.06899  0.32388  0.54117  1.0000
  C   C32       1.0  0.26295  0.13882  0.56475  1.0000
  C   C33       1.0  0.30226  0.10962  0.55105  1.0000
  C   C34       1.0  0.29386  0.07561  0.52231  1.0000
  C   C35       1.0  0.24644  0.07185  0.50658  1.0000
  C   C36       1.0  0.20731  0.10069  0.52055  1.0000
  C   C37       1.0  0.21540  0.13369  0.54970  1.0000
  H   H50       1.0  0.33889  0.11306  0.56305  1.0000
  H   H51       1.0  0.32387  0.05274  0.51202  1.0000
  S   S10       1.0  0.23430  0.03288  0.46885  1.0000
  H   H52       1.0  0.18474  0.15544  0.56029  1.0000
  C   C38       1.0  0.39637  0.08756  0.44900  1.0000
  C   C39       1.0  0.11955  0.13660  0.43184  1.0000
  C   C40       1.0  0.12181  0.42257  0.62352  1.0000
  C   C41       1.0  0.08934  0.40924  0.65201  1.0000
  H   H53       1.0  0.14424  0.39443  0.61020  1.0000
  N   N2        1.0  0.04631  0.07828  0.41583  1.0000
  H   H54       1.0  0.46642  0.20954  0.55981  1.0000
  H   H55       1.0  0.02208  0.14669  0.38955  1.0000
  C   C42       1.0  0.23094  0.01372  0.62065  1.0000
  C   C43       1.0  0.09819  0.09578  0.40652  1.0000
  H   H56       1.0  0.09781  0.17131  0.42871  1.0000
  H   H57       1.0  0.11981  0.02804  0.46044  1.0000
  C   C44       1.0  0.03996  0.29494  0.54385  1.0000
  H   H58       1.0  0.02603  0.22280  0.51852  1.0000
  C   C45       1.0  0.06414  0.49664  0.65771  1.0000
  H   H59       1.0  0.11882  0.12514  0.46104  1.0000
  H   H60       1.0  0.15031  0.48234  0.59002  1.0000
  H   H61       1.0  0.04928  0.08615  0.47541  1.0000
  H   H62       1.0  0.41439  0.17642  0.48873  1.0000
  H   H63       1.0  0.30104  0.07867  0.67638  1.0000
  H   H64       1.0  0.04201  0.27878  0.57183  1.0000
  H   H65       1.0  0.42793  0.24675  0.53012  1.0000
  H   H66       1.0  0.12477  0.06405  0.40581  1.0000
  H   H67       1.0  0.09923  0.11130  0.37819  1.0000
  C   C46       1.0  0.12522  0.47256  0.61217  1.0000
  H   H68       1.0  0.23147  0.05459  0.62426  1.0000
  H   H69       1.0  0.37903  0.11956  0.65676  1.0000
  H   H70       1.0  0.15521  0.01675  0.64289  1.0000
  C   C47       1.0  0.37896  0.10957  0.41257  1.0000
  C   C48       1.0  0.04328  0.05712  0.45427  1.0000
  H   H71       1.0  0.18835  0.17696  0.44098  1.0000
  C   C49       1.0  0.17358  0.14853  0.42177  1.0000
  H   H72       1.0  0.19734  0.11496  0.42406  1.0000
  C   C50       1.0  0.03265  0.03724  0.38941  1.0000
  H   H73       1.0  0.17035  0.09713  0.50913  1.0000
  H   H74       1.0  0.17602  0.16313  0.39329  1.0000
  C   C51       1.0  0.08078  0.01514  0.46363  1.0000
  H   H75       1.0  0.33821  0.10343  0.40949  1.0000
  H   H76       1.0  0.38621  0.15007  0.41178  1.0000
  H   H77       1.0  0.09082  0.23902  0.52256  1.0000
  C   C52       1.0  0.45354  0.03239  0.50341  1.0000
  S   S11       1.0  0.19241  0.24647  0.68207  1.0000
  H   H78       1.0  0.01522  0.03146  0.65328  1.0000
  C   C53       1.0  0.47502  0.01044  0.53949  1.0000
  H   H79       1.0  0.37516  0.10543  0.47162  1.0000
  S   S12       1.0  0.07620  0.20750  0.68176  1.0000
  H   H80       1.0  0.01471  0.34000  0.60780  1.0000
  C   C54       1.0  0.45345  0.09383  0.45428  1.0000
  H   H81       1.0  0.39682  0.06582  0.63028  1.0000
  C   C55       1.0  0.15079  0.02209  0.58460  1.0000
  H   H82       1.0  0.15427  0.06304  0.58460  1.0000
  H   H83       1.0  0.04243  0.39447  0.56036  1.0000
  S   S13       1.0  0.05038  0.10468  0.60235  1.0000
  H   H84       1.0  0.38661  0.04759  0.44857  1.0000
  C   C56       1.0  0.43474  0.20851  0.54021  1.0000
  H   H85       1.0  0.46063  0.00502  0.48108  1.0000
  S   S14       1.0  0.08156  0.34660  0.66674  1.0000
  C   C57       1.0  0.00890  0.12007  0.41084  1.0000
  H   H86       1.0  0.40061  0.19576  0.55485  1.0000
  C   C58       1.0  0.05306  0.25380  0.51645  1.0000
  N   N3        1.0  0.47262  0.08301  0.49244  1.0000
  C   C59       1.0  0.37571  0.07859  0.65486  1.0000
  H   H87       1.0  0.05899  0.00567  0.39149  1.0000
  C   C60       1.0  0.31411  0.00766  0.64709  1.0000
  H   H88       1.0  0.20354  0.46444  0.35678  1.0000
  H   H89       1.0  0.02686  0.16519  0.46013  1.0000
  C   C61       1.0  0.45520  0.12031  0.52084  1.0000
  H   H90       1.0  0.48179  0.12141  0.54431  1.0000
  H   H91       1.0  0.30611  0.08414  0.62726  1.0000
  C   C62       1.0  0.44660  0.17440  0.50774  1.0000
  H   H92       1.0  0.24788  0.00663  0.59306  1.0000
  C   C63       1.0  0.32072  0.06452  0.65162  1.0000
  H   H93       1.0  0.00493  0.04270  0.45957  1.0000
  C   C64       1.0  0.17490  0.00036  0.61891  1.0000
  H   H94       1.0  0.05305  0.26830  0.48789  1.0000
  H   H95       1.0  0.39845  0.09123  0.38921  1.0000
  H   H96       1.0  0.11048  0.01304  0.58445  1.0000
  H   H97       1.0  0.00443  0.40845  0.52165  1.0000
  H   H98       1.0  0.46363  0.13171  0.44529  1.0000
  C   C65       1.0  0.00330  0.40200  0.55193  1.0000
  H   H99       1.0  0.47196  0.06899  0.43386  1.0000
  H   H100      1.0  0.05776  0.48874  0.55295  1.0000
  H   H101      1.0  0.07975  0.03019  0.52244  1.0000
  H   H102      1.0  0.47938  0.18959  0.49313  1.0000
  C   C66       1.0  0.07451  0.99840  0.50341  1.0000
  H   H103      1.0  0.16831  0.00676  0.55929  1.0000
  C   C67       1.0  0.01687  0.49526  0.55320  1.0000
  C   C68       1.0  0.03469  0.99745  0.66231  1.0000
  H   H104      1.0  0.14503  0.49675  0.36176  1.0000
  H   H105      1.0  0.39225  0.06212  0.68002  1.0000
  S   S15       1.0  0.15084  0.14942  0.76155  1.0000
  H   H106      1.0  0.24299  0.29030  0.92041  1.0000
  H   H107      1.0  0.13859  0.16084  0.93185  1.0000
  C   C69       1.0  0.24405  0.29670  0.97916  1.0000
  Fe  Fe7       1.0  0.31016  0.02508  0.96452  1.0000
  H   H108      1.0  0.24132  0.24345  0.86991  1.0000
  H   H109      1.0  0.20591  0.11748  0.88863  1.0000
  H   H110      1.0  0.27222  0.00057  0.70863  1.0000
  H   H111      1.0  0.22614  0.03883  0.68861  1.0000
  H   H112      1.0  0.09280  0.02159  0.00792  1.0000
  H   H113      1.0  0.29369  0.14662  0.84862  1.0000
  S   S16       1.0  0.37730  0.02613  0.92693  1.0000
  C   C70       1.0  0.19968  0.11163  0.77794  1.0000
  C   C71       1.0  0.19426  0.08908  0.81245  1.0000
  C   C72       1.0  0.23229  0.05900  0.82681  1.0000
  C   C73       1.0  0.27624  0.05129  0.80690  1.0000
  C   C74       1.0  0.28152  0.07338  0.77213  1.0000
  C   C75       1.0  0.24338  0.10354  0.75767  1.0000
  H   H114      1.0  0.16036  0.09490  0.82808  1.0000
  H   H115      1.0  0.22749  0.04162  0.85325  1.0000
  H   H116      1.0  0.31548  0.06766  0.75655  1.0000
  H   H117      1.0  0.24793  0.12097  0.73110  1.0000
  S   S17       1.0  0.28823  0.09379  0.99693  1.0000
  H   H118      1.0  0.38566  0.13061  0.89737  1.0000
  H   H119      1.0  0.22397  0.18543  0.85191  1.0000
  H   H120      1.0  0.15902  0.23347  0.81687  1.0000
  H   H121      1.0  0.37974  0.17411  0.85978  1.0000
  H   H122      1.0  0.10943  0.26271  0.84235  1.0000
  H   H123      1.0  0.14007  0.18986  0.87542  1.0000
  H   H124      1.0  0.31267  0.21218  0.89780  1.0000
  H   H125      1.0  0.17075  0.29002  0.84226  1.0000
  C   C76       1.0  0.24142  0.00037  0.68807  1.0000
  H   H126      1.0  0.17603  0.13873  0.96915  1.0000
  H   H127      1.0  0.13020  0.07386  0.90846  1.0000
  H   H128      1.0  0.31129  0.16472  0.93188  1.0000
  H   H129      1.0  0.10696  0.08200  0.95467  1.0000
  H   H130      1.0  0.16653  0.05254  0.94745  1.0000
  H   H131      1.0  0.29871  0.10037  0.88394  1.0000
  H   H132      1.0  0.15290  0.24625  0.90086  1.0000
  Fe  Fe8       1.0  0.14976  0.18088  0.70364  1.0000
  H   H133      1.0  0.29761  0.26486  0.94249  1.0000
  S   S18       1.0  0.32471  0.01378  0.82447  1.0000
  H   H134      1.0  0.37744  0.10844  0.85102  1.0000
  H   H135      1.0  0.24044  0.10842  0.92931  1.0000
  N   N4        1.0  0.23862  0.18465  0.91045  1.0000
  C   C77       1.0  0.23161  0.21611  0.94448  1.0000
  C   C78       1.0  0.21426  0.13454  0.91572  1.0000
  C   C79       1.0  0.29410  0.17680  0.90542  1.0000
  C   C80       1.0  0.21907  0.20977  0.87633  1.0000
  C   C81       1.0  0.16319  0.22391  0.87642  1.0000
  C   C82       1.0  0.25640  0.26800  0.94400  1.0000
  C   C83       1.0  0.31010  0.13832  0.87581  1.0000
  C   C84       1.0  0.16630  0.13248  0.93980  1.0000
  C   C85       1.0  0.14108  0.08194  0.93729  1.0000
  C   C86       1.0  0.15001  0.25440  0.84239  1.0000
  H   H136      1.0  0.06101  0.00191  0.94466  1.0000
  C   C87       1.0  0.36673  0.13801  0.87082  1.0000
  H   H137      1.0  0.24640  0.19584  0.96886  1.0000
  H   H138      1.0  0.19159  0.22243  0.95056  1.0000
  H   H139      1.0  0.00872  0.02506  0.90381  1.0000
  C   C88       1.0  0.06116  0.00992  0.69825  1.0000
  H   H140      1.0  0.20318  0.30279  0.98164  1.0000
  H   H141      1.0  0.16528  0.02298  0.73731  1.0000
  H   H142      1.0  0.26272  0.33342  0.97854  1.0000
  H   H143      1.0  0.25739  0.27618  0.00373  1.0000
  H   H144      1.0  0.04250  0.00989  0.86225  1.0000
  H   H145      1.0  0.08858  0.04011  0.69341  1.0000
  H   H146      1.0  0.00663  0.07090  0.00921  1.0000
  H   H147      1.0  0.03515  0.43684  0.69090  1.0000
  H   H148      1.0  0.03393  0.02294  0.71923  1.0000
  C   C89       1.0  0.01095  0.99900  0.88029  1.0000
  S   S19       1.0  0.25651  0.90243  0.32540  1.0000
  Fe  Fe9       1.0  0.14633  0.70445  0.19298  1.0000
  S   S20       1.0  0.16655  0.64270  0.15386  1.0000
  S   S21       1.0  0.17948  0.70389  0.25040  1.0000
  Fe  Fe10      1.0  0.07709  0.75347  0.13741  1.0000
  S   S22       1.0  0.09130  0.69554  0.09434  1.0000
  Fe  Fe11      1.0  0.08497  0.64002  0.14037  1.0000
  S   S23       1.0  0.03522  0.57149  0.13556  1.0000
  Fe  Fe12      1.0  0.17118  0.70301  0.11128  1.0000
  S   S24       1.0  0.23604  0.71050  0.07209  1.0000
  S   S25       1.0  0.06396  0.69813  0.18250  1.0000
  S   S26       1.0  0.15777  0.76454  0.15145  1.0000
  C   C90       1.0  0.23901  0.84674  0.30327  1.0000
  C   C91       1.0  0.20692  0.84922  0.27286  1.0000
  C   C92       1.0  0.18958  0.80576  0.25572  1.0000
  C   C93       1.0  0.20387  0.75932  0.26914  1.0000
  C   C94       1.0  0.23659  0.75685  0.29919  1.0000
  C   C95       1.0  0.25449  0.80038  0.31600  1.0000
  H   H149      1.0  0.19452  0.88492  0.26311  1.0000
  H   H150      1.0  0.16416  0.80811  0.23276  1.0000
  H   H151      1.0  0.24822  0.72107  0.30948  1.0000
  H   H152      1.0  0.09096  0.78486  0.32813  1.0000
  H   H153      1.0  0.21401  0.56084  0.26092  1.0000
  H   H154      1.0  0.02558  0.90782  0.22251  1.0000
  H   H155      1.0  0.00785  0.74830  0.34195  1.0000
  C   C96       1.0  0.03322  0.55397  0.24882  1.0000
  H   H156      1.0  0.14320  0.55391  0.29426  1.0000
  H   H157      1.0  0.27153  0.52508  0.21445  1.0000
  H   H158      1.0  0.36341  0.82328  0.19427  1.0000
  H   H159      1.0  0.29581  0.86244  0.04671  1.0000
  C   C97       1.0  0.34060  0.96768  0.10861  1.0000
  H   H160      1.0  0.04045  0.71555  0.30590  1.0000
  H   H161      1.0  0.09389  0.51252  0.30320  1.0000
  H   H162      1.0  0.02211  0.61438  0.06097  1.0000
  H   H163      1.0  0.27069  0.59188  0.21245  1.0000
  H   H164      1.0  0.13208  0.52250  0.12607  1.0000
  H   H165      1.0  0.29012  0.94633  0.06430  1.0000
  H   H166      1.0  0.10640  0.57982  0.05431  1.0000
  N   N5        1.0  0.12032  0.51105  0.24690  1.0000
  H   H167      1.0  0.14317  0.83614  0.08086  1.0000
  H   H168      1.0  0.31683  0.77685  0.20368  1.0000
  H   H169      1.0  0.43127  0.83188  0.03648  1.0000
  H   H170      1.0  0.37476  0.94486  0.10724  1.0000
  H   H171      1.0  0.21494  0.87614  0.04486  1.0000
  C   C98       1.0  0.24825  0.55789  0.20771  1.0000
  H   H172      1.0  0.03738  0.68918  0.35135  1.0000
  C   C99       1.0  0.13625  0.91272  0.18768  1.0000
  H   H173      1.0  0.20911  0.93154  0.20752  1.0000
  H   H174      1.0  0.10567  0.92875  0.17087  1.0000
  H   H175      1.0  0.12033  0.72638  0.33759  1.0000
  C   C100      1.0  0.29318  0.94051  0.09453  1.0000
  H   H176      1.0  0.10471  0.59014  0.24477  1.0000
  S   S27       1.0  0.03384  0.82344  0.12497  1.0000
  N   N6        1.0  0.28823  0.88590  0.10320  1.0000
  C   C101      1.0  0.30872  0.87510  0.14102  1.0000
  H   H177      1.0  0.28011  0.79810  0.33882  1.0000
  C   C102      1.0  0.23338  0.87271  0.10371  1.0000
  C   C103      1.0  0.31294  0.85473  0.07387  1.0000
  C   C104      1.0  0.36968  0.86206  0.06826  1.0000
  C   C105      1.0  0.30153  0.82136  0.15536  1.0000
  C   C106      1.0  0.20128  0.89166  0.07114  1.0000
  H   H178      1.0  0.30350  0.84082  0.21367  1.0000
  H   H179      1.0  0.08721  0.55715  0.20465  1.0000
  C   C107      1.0  0.32274  0.81550  0.19409  1.0000
  C   C108      1.0  0.14664  0.87664  0.07620  1.0000
  H   H180      1.0  0.29108  0.90056  0.16144  1.0000
  H   H181      1.0  0.34923  0.88277  0.14256  1.0000
  H   H182      1.0  0.12501  0.88606  0.05123  1.0000
  H   H183      1.0  0.18156  0.59422  0.22557  1.0000
  H   H184      1.0  0.21561  0.88669  0.12933  1.0000
  H   H185      1.0  0.22849  0.83167  0.10396  1.0000
  H   H186      1.0  0.30594  0.81466  0.07888  1.0000
  H   H187      1.0  0.26159  0.96176  0.10686  1.0000
  H   H188      1.0  0.39051  0.85672  0.09421  1.0000
  C   C109      1.0  0.39066  0.82527  0.04023  1.0000
  H   H189      1.0  0.26152  0.81138  0.15712  1.0000
  H   H190      1.0  0.32073  0.79428  0.13718  1.0000
  H   H191      1.0  0.15002  0.87877  0.17368  1.0000
  H   H192      1.0  0.20206  0.93251  0.06873  1.0000
  H   H193      1.0  0.12989  0.89637  0.10004  1.0000
  H   H194      1.0  0.07724  0.97663  0.09197  1.0000
  H   H195      1.0  0.37714  0.89957  0.05708  1.0000
  H   H196      1.0  0.12127  0.90159  0.21494  1.0000
  H   H197      1.0  0.04641  0.77117  0.04027  1.0000
  H   H198      1.0  0.23797  0.55651  0.17815  1.0000
  C   C110      1.0  0.17878  0.95002  0.19214  1.0000
  C   C111      1.0  0.05417  0.50828  0.13537  1.0000
  H   H199      1.0  0.04078  0.96899  0.23999  1.0000
  H   H200      1.0  0.31324  0.98971  0.29620  1.0000
  C   C112      1.0  0.04061  0.72441  0.33575  1.0000
  H   H201      1.0  0.19293  0.95885  0.16423  1.0000
  H   H202      1.0  0.03080  0.54981  0.27904  1.0000
  H   H203      1.0  0.06125  0.96796  0.02661  1.0000
  C   C113      1.0  0.20154  0.55937  0.23188  1.0000
  C   C114      1.0  0.22863  0.75150  0.03484  1.0000
  H   H204      1.0  0.12781  0.97517  0.03213  1.0000
  H   H205      1.0  0.19948  0.52889  0.34429  1.0000
  C   C115      1.0  0.12942  0.51599  0.28767  1.0000
  H   H206      1.0  0.02523  0.63444  0.25160  1.0000
  C   C116      1.0  0.08902  0.75114  0.34548  1.0000
  H   H207      1.0  0.15948  0.51193  0.19500  1.0000
  H   H208      1.0  0.14927  0.75979  0.04121  1.0000
  H   H209      1.0  0.38523  0.78656  0.04975  1.0000
  C   C117      1.0  0.08831  0.55452  0.23521  1.0000
  H   H210      1.0  0.33512  0.97815  0.13792  1.0000
  H   H211      1.0  0.25010  0.98007  0.24435  1.0000
  H   H212      1.0  0.01659  0.97710  0.32743  1.0000
  C   C118      1.0  0.01102  0.94055  0.23773  1.0000
  H   H213      1.0  0.00455  0.95307  0.16696  1.0000
  C   C119      1.0  0.09033  0.55501  0.03300  1.0000
  C   C120      1.0  0.16814  0.51340  0.22493  1.0000
  H   H214      1.0  0.13955  0.98523  0.23686  1.0000
  H   H215      1.0  0.13300  0.90259  0.32098  1.0000
  H   H216      1.0  0.01220  0.52313  0.23587  1.0000
  C   C121      1.0  0.00631  0.60206  0.23894  1.0000
  H   H217      1.0  0.00521  0.60691  0.20866  1.0000
  H   H218      1.0  0.15999  0.82237  0.34848  1.0000
  C   C122      1.0  0.00689  0.59949  0.03471  1.0000
  H   H219      1.0  0.07341  0.52229  0.04675  1.0000
  C   C123      1.0  0.18191  0.77112  0.02592  1.0000
  H   H220      1.0  0.09493  0.94469  0.34734  1.0000
  C   C124      1.0  0.12491  0.91655  0.34912  1.0000
  H   H221      1.0  0.30671  0.75026  0.02083  1.0000
  H   H222      1.0  0.20073  0.73445  0.59044  1.0000
  C   C125      1.0  0.03741  0.89380  0.60229  1.0000
  S   S28       1.0  0.15637  0.81940  0.62714  1.0000
  Fe  Fe13      1.0  0.39193  0.94039  0.42118  1.0000
  H   H223      1.0  0.27317  0.92698  0.61277  1.0000
  H   H224      1.0  0.27578  0.71839  0.38166  1.0000
  Fe  Fe14      1.0  0.32000  0.86931  0.45784  1.0000
  S   S29       1.0  0.25233  0.90465  0.43356  1.0000
  S   S30       1.0  0.30852  0.80221  0.49374  1.0000
  Fe  Fe15      1.0  0.29587  0.90740  0.38091  1.0000
  H   H225      1.0  0.28997  0.83432  0.63442  1.0000
  S   S31       1.0  0.36167  0.86593  0.40375  1.0000
  S   S32       1.0  0.35486  0.94059  0.47712  1.0000
  H   H226      1.0  0.08499  0.72905  0.40232  1.0000
  S   S33       1.0  0.46845  0.97012  0.40406  1.0000
  C   C126      1.0  0.09646  0.51000  0.62913  1.0000
  S   S34       1.0  0.06493  0.71012  0.59333  1.0000
  C   C127      1.0  0.29952  0.90270  0.66569  1.0000
  C   C128      1.0  0.19594  0.81405  0.58849  1.0000
  C   C129      1.0  0.21214  0.85696  0.57025  1.0000
  C   C130      1.0  0.24586  0.85371  0.54064  1.0000
  C   C131      1.0  0.26412  0.80745  0.52944  1.0000
  C   C132      1.0  0.24738  0.76455  0.54737  1.0000
  C   C133      1.0  0.21303  0.76776  0.57658  1.0000
  H   H227      1.0  0.19822  0.89276  0.57875  1.0000
  H   H228      1.0  0.25826  0.88696  0.52679  1.0000
  H   H229      1.0  0.26126  0.72867  0.53878  1.0000
  N   N7        1.0  0.13770  0.78949  0.40018  1.0000
  C   C134      1.0  0.18031  0.75309  0.39724  1.0000
  C   C135      1.0  0.09073  0.76434  0.38711  1.0000
  H   H230      1.0  0.40588  0.97538  0.55778  1.0000
  C   C136      1.0  0.13004  0.80640  0.43936  1.0000
  C   C137      1.0  0.12485  0.76472  0.46849  1.0000
  C   C138      1.0  0.23066  0.77005  0.41399  1.0000
  C   C139      1.0  0.07139  0.89509  0.56855  1.0000
  H   H231      1.0  0.18334  0.85315  0.38733  1.0000
  S   S35       1.0  0.10048  0.57198  0.61209  1.0000
  C   C140      1.0  0.11841  0.78666  0.50692  1.0000
  C   C141      1.0  0.27000  0.72923  0.41083  1.0000
  H   H232      1.0  0.22683  0.77952  0.44348  1.0000
  H   H233      1.0  0.06367  0.98776  0.64171  1.0000
  H   H234      1.0  0.17004  0.71694  0.40987  1.0000
  H   H235      1.0  0.00071  0.78259  0.54308  1.0000
  H   H236      1.0  0.09499  0.86133  0.56795  1.0000
  H   H237      1.0  0.10031  0.89041  0.40158  1.0000
  H   H238      1.0  0.16835  0.95991  0.61828  1.0000
  H   H239      1.0  0.16084  0.83150  0.44805  1.0000
  H   H240      1.0  0.09556  0.82919  0.44170  1.0000
  H   H241      1.0  0.15835  0.74062  0.46924  1.0000
  H   H242      1.0  0.09184  0.74122  0.46281  1.0000
  H   H243      1.0  0.24536  0.80297  0.39944  1.0000
  H   H244      1.0  0.30603  0.74295  0.42189  1.0000
  H   H245      1.0  0.00942  0.52970  0.56909  1.0000
  C   C142      1.0  0.14971  0.83401  0.37680  1.0000
  H   H246      1.0  0.46189  0.94999  0.57761  1.0000
  H   H247      1.0  0.00367  0.84292  0.49137  1.0000
  Fe  Fe16      1.0  0.07017  0.64633  0.63388  1.0000
  H   H248      1.0  0.18824  0.74437  0.36795  1.0000
  N   N8        1.0  0.26130  0.98841  0.65011  1.0000
  H   H249      1.0  0.11761  0.75646  0.52760  1.0000
  H   H250      1.0  0.14999  0.81161  0.51354  1.0000
  H   H251      1.0  0.08307  0.80784  0.50894  1.0000
  H   H252      1.0  0.25863  0.69628  0.42707  1.0000
  H   H253      1.0  0.44638  0.93579  0.53061  1.0000
  S   S36       1.0  0.11373  0.69143  0.67507  1.0000
  Fe  Fe17      1.0  0.10287  0.75561  0.63671  1.0000
  S   S37       1.0  0.03157  0.77984  0.66346  1.0000
  H   H254      1.0  0.22512  0.91664  0.64493  1.0000
  C   C143      1.0  0.44531  0.96518  0.55204  1.0000
  H   H255      1.0  0.06137  0.89747  0.62692  1.0000
  C   C144      1.0  0.26264  0.93350  0.64208  1.0000
  H   H256      1.0  0.01947  0.85677  0.60286  1.0000
  H   H257      1.0  0.04930  0.89622  0.54283  1.0000
  C   C145      1.0  0.28806  0.84731  0.66342  1.0000
  H   H258      1.0  0.05732  0.78728  0.39371  1.0000
  H   H259      1.0  0.33819  0.90802  0.65536  1.0000
  Fe  Fe18      1.0  0.28955  0.97587  0.44873  1.0000
  H   H260      1.0  0.25026  0.83945  0.67450  1.0000
  C   C146      1.0  0.10840  0.87416  0.37417  1.0000
  H   H261      1.0  0.09624  0.92779  0.56973  1.0000
  H   H262      1.0  0.01500  0.97047  0.59247  1.0000
  H   H263      1.0  0.10304  0.96984  0.50974  1.0000
  S   S38       1.0  0.32850  0.98178  0.39445  1.0000
  H   H264      1.0  0.33806  0.99047  0.66852  1.0000
  H   H265      1.0  0.01897  0.92114  0.67679  1.0000
  H   H266      1.0  0.03685  0.98219  0.50776  1.0000
  H   H267      1.0  0.31576  0.82615  0.67975  1.0000
  H   H268      1.0  0.04157  0.52476  0.67095  1.0000
  H   H269      1.0  0.07338  0.85871  0.36280  1.0000
  H   H270      1.0  0.15884  0.93472  0.36030  1.0000
  H   H271      1.0  0.07507  0.98194  0.44620  1.0000
  H   H272      1.0  0.16891  0.96061  0.68550  1.0000
  H   H273      1.0  0.00383  0.50087  0.52456  1.0000
  H   H274      1.0  0.33073  0.99702  0.62005  1.0000
  S   S39       1.0  0.21401  0.87005  0.94592  1.0000
  C   C147      1.0  0.22005  0.82271  0.97872  1.0000
  H   H275      1.0  0.32834  0.83365  0.81267  1.0000
  Fe  Fe19      1.0  0.28005  0.92147  0.94066  1.0000
  H   H276      1.0  0.21184  0.98689  0.76136  1.0000
  H   H277      1.0  0.10221  0.86499  0.93090  1.0000
  H   H278      1.0  0.26936  0.77329  0.78645  1.0000
  C   C148      1.0  0.04542  0.78690  0.91106  1.0000
  C   C149      1.0  0.06336  0.87753  0.92525  1.0000
  H   H279      1.0  0.15348  0.73952  0.87757  1.0000
  H   H280      1.0  0.14331  0.93572  0.91075  1.0000
  C   C150      1.0  0.11771  0.92194  0.85663  1.0000
  H   H281      1.0  0.21275  0.65011  0.72138  1.0000
  Fe  Fe20      1.0  0.32594  0.99192  0.88492  1.0000
  C   C151      1.0  0.03970  0.84027  0.89771  1.0000
  H   H282      1.0  0.15499  0.98422  0.83039  1.0000
  H   H283      1.0  0.08109  0.97695  0.70884  1.0000
  H   H284      1.0  0.02586  0.95353  0.96521  1.0000
  C   C152      1.0  0.24735  0.79948  0.76952  1.0000
  C   C153      1.0  0.10984  0.94617  0.89460  1.0000
  H   H285      1.0  0.15955  0.82755  0.81833  1.0000
  H   H286      1.0  0.02000  0.78030  0.93464  1.0000
  H   H287      1.0  0.12106  0.54199  0.01486  1.0000
  C   C154      1.0  0.20094  0.96538  0.70417  1.0000
  N   N9        1.0  0.06297  0.93201  0.91494  1.0000
  Fe  Fe21      1.0  0.39110  0.94813  0.94632  1.0000
  C   C155      1.0  0.09600  0.98119  0.01322  1.0000
  H   H288      1.0  0.15610  0.63919  0.74737  1.0000
  H   H289      1.0  0.12601  0.88214  0.86048  1.0000
  H   H290      1.0  0.09024  0.81209  0.77279  1.0000
  S   S40       1.0  0.34431  0.91357  0.90141  1.0000
  H   H291      1.0  0.26093  0.79318  0.74088  1.0000
  C   C156      1.0  0.31848  0.85683  0.78852  1.0000
  H   H292      1.0  0.14182  0.82246  0.99139  1.0000
  H   H293      1.0  0.05637  0.84296  0.86997  1.0000
  C   C157      1.0  0.06125  0.96153  0.95023  1.0000
  H   H294      1.0  0.08438  0.77889  0.91941  1.0000
  C   C158      1.0  0.05133  0.58268  0.01026  1.0000
  C   C159      1.0  0.16521  0.82728  0.74962  1.0000
  H   H295      1.0  0.19661  0.94211  0.85419  1.0000
  H   H296      1.0  0.34082  0.84478  0.76434  1.0000
  C   C160      1.0  0.17761  0.80620  0.99757  1.0000
  H   H297      1.0  0.19011  0.68651  0.79978  1.0000
  H   H298      1.0  0.29934  0.81431  0.97204  1.0000
  C   C161      1.0  0.10799  0.82051  0.74594  1.0000
  C   C162      1.0  0.18135  0.98530  0.74080  1.0000
  C   C163      1.0  0.03171  0.70771  0.00466  1.0000
  N   N10       1.0  0.19223  0.78849  0.77204  1.0000
  C   C164      1.0  0.18207  0.73891  0.75427  1.0000
  H   H299      1.0  0.10007  0.87714  0.70362  1.0000
  C   C165      1.0  0.17252  0.78967  0.81107  1.0000
  C   C166      1.0  0.20909  0.77450  0.84224  1.0000
  C   C167      1.0  0.08325  0.86706  0.73056  1.0000
  C   C168      1.0  0.20661  0.69304  0.77220  1.0000
  H   H300      1.0  0.14075  0.96605  0.96599  1.0000
  C   C169      1.0  0.18189  0.76938  0.87900  1.0000
  H   H301      1.0  0.07058  0.77643  0.99430  1.0000
  H   H302      1.0  0.14144  0.73064  0.75452  1.0000
  H   H303      1.0  0.19341  0.73990  0.72473  1.0000
  H   H304      1.0  0.07015  0.61387  0.99640  1.0000
  H   H305      1.0  0.20905  0.75989  0.90094  1.0000
  H   H306      1.0  0.03502  0.76085  0.88877  1.0000
  H   H307      1.0  0.13856  0.76599  0.81343  1.0000
  H   H308      1.0  0.23834  0.80310  0.84598  1.0000
  H   H309      1.0  0.22821  0.73900  0.83648  1.0000
  H   H310      1.0  0.10893  0.91295  0.98449  1.0000
  H   H311      1.0  0.16959  0.92463  0.81093  1.0000
  C   C170      1.0  0.19683  0.64634  0.74948  1.0000
  H   H312      1.0  0.16358  0.80485  0.88667  1.0000
  H   H313      1.0  0.09987  0.78981  0.72659  1.0000
  C   C171      1.0  0.10486  0.95274  0.97752  1.0000
  C   C172      1.0  0.26656  0.80226  0.98695  1.0000
  H   H314      1.0  0.21450  0.61386  0.76292  1.0000
  H   H315      1.0  0.15168  0.96067  0.75147  1.0000
  H   H316      1.0  0.08481  0.92630  0.83855  1.0000
  S   S41       1.0  0.25845  0.99712  0.92099  1.0000
  H   H317      1.0  0.24757  0.69720  0.77461  1.0000
  H   H318      1.0  0.04288  0.86000  0.72649  1.0000
  H   H319      1.0  0.02838  0.70188  0.97463  1.0000
  C   C173      1.0  0.26276  0.85307  0.78037  1.0000
  H   H320      1.0  0.21645  0.92802  0.70943  1.0000
  C   C174      1.0  0.01655  0.94455  0.89334  1.0000
  S   S42       1.0  0.32703  0.94967  0.98717  1.0000
  H   H321      1.0  0.32820  0.89592  0.79503  1.0000
  H   H322      1.0  0.08702  0.89834  0.75018  1.0000
  H   H323      1.0  0.25467  0.87880  0.75734  1.0000
  C   C175      1.0  0.16252  0.94475  0.83695  1.0000
  S   S43       1.0  0.46441  0.91327  0.96620  1.0000
  H   H324      1.0  0.24194  0.86637  0.80485  1.0000
  H   H325      1.0  0.03777  0.55695  0.98859  1.0000
  H   H326      1.0  0.04247  0.87149  0.95147  1.0000
  C   C176      1.0  0.03862  0.76327  0.01089  1.0000
  H   H327      1.0  0.17083  0.86464  0.76173  1.0000
  H   H328      1.0  0.18087  0.82896  0.72118  1.0000
  S   S44       1.0  0.02940  0.71552  0.76092  1.0000
  H   H329      1.0  0.29855  0.91419  0.69498  1.0000
  H   H330      1.0  0.06594  0.68934  0.01477  1.0000
  Fe  Fe22      1.0  0.03881  0.71252  0.69868  1.0000
  H   H331      1.0  0.01348  0.92148  0.86819  1.0000
  H   H332      1.0  0.00490  0.78411  0.00225  1.0000
  H   H333      1.0  0.37243  0.83029  0.01310  1.0000
  C   C177      1.0  0.27066  0.76608  0.01454  1.0000
  H   H334      1.0  0.11227  0.98709  0.89160  1.0000
  H   H335      1.0  0.97939  0.48132  0.14411  1.0000
  C   C178      1.0  0.83027  0.08917  0.17217  1.0000
  S   S45       1.0  0.90938  0.16650  0.09939  1.0000
  C   C179      1.0  0.94376  0.15534  0.32150  1.0000
  C   C180      1.0  0.88277  0.05638  0.02602  1.0000
  Fe  Fe23      1.0  0.97944  0.19275  0.12797  1.0000
  H   H336      1.0  0.84071  0.09892  0.06573  1.0000
  H   H337      1.0  0.79617  0.10037  0.15703  1.0000
  S   S46       1.0  0.98245  0.25613  0.16862  1.0000
  C   C181      1.0  0.95686  0.15381  0.28407  1.0000
  C   C182      1.0  0.95712  0.01461  0.11929  1.0000
  H   H338      1.0  0.67549  0.03174  0.05342  1.0000
  C   C183      1.0  0.93430  0.11866  0.26126  1.0000
  C   C184      1.0  0.89931  0.08508  0.27587  1.0000
  C   C185      1.0  0.88669  0.08618  0.31337  1.0000
  C   C186      1.0  0.90884  0.12166  0.33612  1.0000
  C   C187      1.0  0.85574  0.04620  0.15207  1.0000
  H   H339      1.0  0.94363  0.11757  0.23239  1.0000
  H   H340      1.0  0.88181  0.05815  0.25813  1.0000
  H   H341      1.0  0.86465  0.05931  0.12413  1.0000
  H   H342      1.0  0.85558  0.12174  0.17354  1.0000
  H   H343      1.0  0.92502  0.06277  0.17989  1.0000
  C   C188      1.0  0.87693  0.09278  0.05340  1.0000
  H   H344      1.0  0.80442  0.18437  0.06088  1.0000
  H   H345      1.0  0.81944  0.07817  0.20051  1.0000
  S   S47       1.0  0.84379  0.04218  0.33077  1.0000
  H   H346      1.0  0.97273  0.05200  0.12523  1.0000
  C   C189      1.0  0.91790  0.12082  0.06528  1.0000
  H   H347      1.0  0.78910  0.23557  0.03093  1.0000
  H   H348      1.0  0.96051  0.18286  0.33921  1.0000
  H   H349      1.0  0.82848  0.01536  0.15042  1.0000
  C   C190      1.0  0.96489  0.11195  0.04984  1.0000
  H   H350      1.0  0.75087  0.22252  0.07057  1.0000
  H   H351      1.0  0.72444  0.14312  0.04411  1.0000
  H   H352      1.0  0.92746  0.02255  0.09906  1.0000
  C   C191      1.0  0.90289  0.02912  0.17286  1.0000
  H   H353      1.0  0.88856  0.01417  0.19928  1.0000
  H   H354      1.0  0.99676  0.13311  0.05894  1.0000
  C   C192      1.0  0.77331  0.20544  0.04817  1.0000
  H   H355      1.0  0.96210  0.01527  0.33479  1.0000
  H   H356      1.0  0.75989  0.06357  0.03617  1.0000
  C   C193      1.0  0.74033  0.17119  0.02518  1.0000
  C   C194      1.0  0.97043  0.07661  0.02173  1.0000
  C   C195      1.0  0.70163  0.00913  0.03661  1.0000
  Fe  Fe24      1.0  0.76022  0.00002  0.45341  1.0000
  C   C196      1.0  0.52888  0.08011  0.49108  1.0000
  C   C197      1.0  0.82702  0.34982  0.53620  1.0000
  S   S48       1.0  0.77727  0.07452  0.42844  1.0000
  Fe  Fe25      1.0  0.84082  0.07687  0.46877  1.0000
  S   S49       1.0  0.86330  0.14464  0.50103  1.0000
  H   H357      1.0  0.94991  0.01754  0.61948  1.0000
  H   H358      1.0  0.63267  0.15170  0.46716  1.0000
  H   H359      1.0  0.82433  0.38135  0.51669  1.0000
  H   H360      1.0  0.94912  0.46023  0.56980  1.0000
  H   H361      1.0  0.87081  0.05299  0.59083  1.0000
  H   H362      1.0  0.89908  0.39205  0.57517  1.0000
  C   C198      1.0  0.88072  0.33109  0.53861  1.0000
  C   C199      1.0  0.55705  0.12747  0.47917  1.0000
  H   H363      1.0  0.89845  0.12351  0.36483  1.0000
  N   N11       1.0  0.96992  0.35834  0.56048  1.0000
  C   C200      1.0  0.91474  0.13356  0.52976  1.0000
  C   C201      1.0  0.93673  0.08661  0.53112  1.0000
  H   H364      1.0  0.97257  0.12671  0.46458  1.0000
  S   S50       1.0  0.89596  0.04174  0.43063  1.0000
  H   H365      1.0  0.91620  0.40037  0.52839  1.0000
  C   C202      1.0  0.93463  0.17225  0.55089  1.0000
  H   H366      1.0  0.92166  0.05655  0.51494  1.0000
  C   C203      1.0  0.99396  0.15054  0.44540  1.0000
  C   C204      1.0  0.97839  0.07845  0.55350  1.0000
  H   H367      1.0  0.91717  0.20829  0.55011  1.0000
  C   C205      1.0  0.91673  0.37288  0.55127  1.0000
  H   H368      1.0  0.56217  0.00764  0.37883  1.0000
  H   H369      1.0  0.61884  0.09001  0.45143  1.0000
  H   H370      1.0  0.80252  0.31949  0.52621  1.0000
  C   C206      1.0  0.96037  0.19424  0.43542  1.0000
  H   H371      1.0  0.96438  0.37952  0.61783  1.0000
  H   H372      1.0  0.54437  0.07081  0.51853  1.0000
  H   H373      1.0  0.99212  0.19382  0.58951  1.0000
  C   C207      1.0  0.94315  0.30338  0.61536  1.0000
  H   H374      1.0  0.62915  0.10158  0.49978  1.0000
  H   H375      1.0  0.89163  0.31775  0.51078  1.0000
  H   H376      1.0  0.94961  0.21452  0.46084  1.0000
  H   H377      1.0  0.95450  0.32236  0.67315  1.0000
  H   H378      1.0  0.97301  0.10561  0.39995  1.0000
  H   H379      1.0  0.64713  0.00972  0.40588  1.0000
  C   C208      1.0  0.97500  0.34686  0.60082  1.0000
  H   H380      1.0  0.96187  0.28320  0.53951  1.0000
  C   C209      1.0  0.61274  0.11689  0.47416  1.0000
  H   H381      1.0  0.99501  0.04202  0.55453  1.0000
  H   H382      1.0  0.55359  0.15623  0.50086  1.0000
  H   H383      1.0  0.81343  0.36178  0.56370  1.0000
  Fe  Fe26      1.0  0.83172  0.03302  0.39224  1.0000
  H   H384      1.0  0.54059  0.04948  0.47238  1.0000
  H   H385      1.0  0.88103  0.29894  0.55745  1.0000
  C   C210      1.0  0.98951  0.45181  0.57104  1.0000
  H   H386      1.0  0.54314  0.14230  0.45274  1.0000
  H   H387      1.0  0.92568  0.18087  0.42200  1.0000
  C   C211      1.0  0.85171  0.01785  0.59824  1.0000
  H   H388      1.0  0.90321  0.31421  0.61588  1.0000
  S   S51       1.0  0.82061  0.00567  0.49653  1.0000
  H   H389      1.0  0.94772  0.26979  0.59827  1.0000
  C   C212      1.0  0.99858  0.11714  0.57442  1.0000
  H   H390      1.0  0.93296  0.25990  0.66501  1.0000
  C   C213      1.0  0.98685  0.31556  0.53659  1.0000
  H   H391      1.0  0.98453  0.32633  0.50706  1.0000
  C   C214      1.0  0.95773  0.28973  0.65461  1.0000
  H   H392      1.0  0.00050  0.45062  0.60043  1.0000
  H   H393      1.0  0.98005  0.22017  0.41667  1.0000
  C   C215      1.0  0.97673  0.16413  0.57312  1.0000
  H   H394      1.0  0.99671  0.27593  0.65524  1.0000
  H   H395      1.0  0.83340  0.02225  0.62548  1.0000
  H   H396      1.0  0.82227  0.01051  0.57758  1.0000
  H   H397      1.0  0.99534  0.02188  0.39684  1.0000
  H   H398      1.0  0.51411  0.99797  0.53509  1.0000
  C   C216      1.0  0.70817  0.14550  0.94486  1.0000
  H   H399      1.0  0.82532  0.05945  0.87742  1.0000
  C   C217      1.0  0.81087  0.11742  0.91786  1.0000
  H   H400      1.0  0.78733  0.13843  0.89831  1.0000
  H   H401      1.0  0.80569  0.06471  0.96171  1.0000
  H   H402      1.0  0.78907  0.17694  0.97837  1.0000
  C   C218      1.0  0.77874  0.08531  0.94425  1.0000
  C   C219      1.0  0.84654  0.08545  0.89516  1.0000
  H   H403      1.0  0.67867  0.16255  0.96235  1.0000
  H   H404      1.0  0.67290  0.18436  0.87834  1.0000
  S   S52       1.0  0.93728  0.00715  0.97293  1.0000
  H   H405      1.0  0.83401  0.14406  0.93357  1.0000
  H   H406      1.0  0.62943  0.13522  0.86853  1.0000
  H   H407      1.0  0.86973  0.10943  0.87717  1.0000
  H   H408      1.0  0.75953  0.05601  0.92798  1.0000
  H   H409      1.0  0.72912  0.17738  0.93311  1.0000
  H   H410      1.0  0.87187  0.06415  0.91343  1.0000
  C   C220      1.0  0.71007  0.07693  0.98872  1.0000
  H   H411      1.0  0.62049  0.17310  0.90884  1.0000
  C   C221      1.0  0.64900  0.15533  0.89092  1.0000
  C   C222      1.0  0.68060  0.11881  0.91294  1.0000
  C   C223      1.0  0.92934  0.04903  0.00958  1.0000
  N   N12       1.0  0.74196  0.11344  0.96792  1.0000
  H   H412      1.0  0.69036  0.05209  0.96934  1.0000
  H   H413      1.0  0.65509  0.08983  0.92358  1.0000
  H   H414      1.0  0.70708  0.10106  0.89349  1.0000
  H   H415      1.0  0.95941  0.04465  0.84910  1.0000
  H   H416      1.0  0.67965  0.09625  0.00392  1.0000
  H   H417      1.0  0.60258  0.01091  0.91144  1.0000
  C   C224      1.0  0.77080  0.14636  0.99383  1.0000
  H   H418      1.0  0.80206  0.12557  0.00657  1.0000
  H   H419      1.0  0.76366  0.01770  0.00032  1.0000
  C   C225      1.0  0.96287  0.00558  0.85829  1.0000
  H   H420      1.0  0.85128  0.03454  0.01722  1.0000
  C   C226      1.0  0.73803  0.04237  0.01570  1.0000
  H   H421      1.0  0.70936  0.19377  0.01396  1.0000
  H   H422      1.0  0.92511  0.86780  0.02214  1.0000
  C   C227      1.0  0.92106  0.62634  0.08013  1.0000
  H   H423      1.0  0.88658  0.73463  0.07973  1.0000
  H   H424      1.0  0.90860  0.93524  0.08625  1.0000
  H   H425      1.0  0.83105  0.88937  0.08003  1.0000
  C   C228      1.0  0.86836  0.62186  0.09590  1.0000
  H   H426      1.0  0.95887  0.74660  0.12154  1.0000
  H   H427      1.0  0.93389  0.91143  0.14777  1.0000
  C   C229      1.0  0.90160  0.79971  0.04763  1.0000
  C   C230      1.0  0.92011  0.62770  0.03736  1.0000
  H   H428      1.0  0.85060  0.58693  0.08647  1.0000
  C   C231      1.0  0.88101  0.93929  0.10885  1.0000
  C   C232      1.0  0.95166  0.77298  0.09981  1.0000
  H   H429      1.0  0.88010  0.93722  0.16857  1.0000
  C   C233      1.0  0.90811  0.94389  0.14645  1.0000
  C   C234      1.0  0.98269  0.81416  0.09554  1.0000
  C   C235      1.0  0.91082  0.76620  0.07621  1.0000
  H   H430      1.0  0.84495  0.65380  0.08734  1.0000
  C   C236      1.0  0.97915  0.98120  0.17927  1.0000
  H   H431      1.0  0.85778  0.97206  0.10255  1.0000
  H   H432      1.0  0.81640  0.89754  0.12808  1.0000
  H   H433      1.0  0.93816  0.66021  0.09174  1.0000
  H   H434      1.0  0.86903  0.85965  0.11427  1.0000
  H   H435      1.0  0.99351  0.69410  0.05536  1.0000
  H   H436      1.0  0.93663  0.93241  0.21689  1.0000
  C   C237      1.0  0.97265  0.84852  0.06764  1.0000
  C   C238      1.0  0.84734  0.89366  0.10791  1.0000
  C   C239      1.0  0.93222  0.84134  0.04374  1.0000
  H   H437      1.0  0.87013  0.62137  0.12641  1.0000
  H   H438      1.0  0.94255  0.59401  0.09030  1.0000
  H   H439      1.0  0.98849  0.98352  0.06868  1.0000
  H   H440      1.0  0.90317  0.59211  0.02807  1.0000
  C   C240      1.0  0.99696  0.98311  0.09861  1.0000
  C   C241      1.0  0.96538  0.96187  0.21821  1.0000
  H   H441      1.0  0.99603  0.94369  0.10696  1.0000
  H   H442      1.0  0.96730  0.60073  0.24920  1.0000
  H   H443      1.0  0.95095  0.99270  0.23553  1.0000
  C   C242      1.0  0.98547  0.68852  0.02572  1.0000
  H   H444      1.0  0.72270  0.98407  0.05515  1.0000
  H   H445      1.0  0.99700  0.87992  0.06369  1.0000
  H   H446      1.0  0.89313  0.65733  0.02958  1.0000
  N   N13       1.0  0.93593  0.99166  0.15379  1.0000
  H   H447      1.0  0.98791  0.56417  0.04232  1.0000
  H   H448      1.0  0.00033  0.92841  0.26583  1.0000
  H   H449      1.0  0.95412  0.71426  0.01978  1.0000
  N   N14       1.0  0.96569  0.94156  0.63465  1.0000
  C   C243      1.0  0.75446  0.86149  0.50211  1.0000
  S   S53       1.0  0.92349  0.76216  0.59747  1.0000
  H   H450      1.0  0.84154  0.80267  0.47572  1.0000
  C   C244      1.0  0.74557  0.91023  0.56154  1.0000
  H   H451      1.0  0.72149  0.91663  0.58598  1.0000
  H   H452      1.0  0.97293  0.92497  0.57668  1.0000
  H   H453      1.0  0.83562  0.86421  0.45780  1.0000
  S   S54       1.0  0.93540  0.91706  0.46658  1.0000
  C   C245      1.0  0.53846  0.94379  0.45734  1.0000
  S   S55       1.0  0.68525  0.97321  0.47637  1.0000
  C   C246      1.0  0.62608  0.96982  0.45463  1.0000
  H   H454      1.0  0.85677  0.77052  0.41216  1.0000
  C   C247      1.0  0.93880  0.89368  0.64250  1.0000
  C   C248      1.0  0.92794  0.80563  0.56139  1.0000
  C   C249      1.0  0.97001  0.80790  0.53866  1.0000
  C   C250      1.0  0.97172  0.84213  0.50954  1.0000
  C   C251      1.0  0.93232  0.87543  0.50381  1.0000
  C   C252      1.0  0.89106  0.87434  0.52729  1.0000
  C   C253      1.0  0.88820  0.83855  0.55528  1.0000
  H   H455      1.0  0.68878  0.80107  0.40669  1.0000
  C   C254      1.0  0.61656  0.83388  0.41401  1.0000
  H   H456      1.0  0.86126  0.90083  0.52358  1.0000
  H   H457      1.0  0.85571  0.83708  0.57293  1.0000
  H   H458      1.0  0.65052  0.77239  0.44147  1.0000
  H   H459      1.0  0.90079  0.81772  0.42542  1.0000
  C   C255      1.0  0.75515  0.70520  0.53702  1.0000
  C   C256      1.0  0.52915  0.96663  0.42351  1.0000
  H   H460      1.0  0.78270  0.89745  0.57110  1.0000
  H   H461      1.0  0.71500  0.74533  0.47377  1.0000
  H   H462      1.0  0.69450  0.77689  0.51355  1.0000
  H   H463      1.0  0.68433  0.88625  0.52877  1.0000
  C   C257      1.0  0.77131  0.75068  0.51502  1.0000
  C   C258      1.0  0.68718  0.84109  0.45993  1.0000
  H   H464      1.0  0.65854  0.84538  0.48183  1.0000
  H   H465      1.0  0.92026  0.87965  0.61741  1.0000
  C   C259      1.0  0.72662  0.77371  0.49421  1.0000
  H   H466      1.0  0.76004  0.89730  0.48744  1.0000
  Fe  Fe27      1.0  0.87133  0.96983  0.45535  1.0000
  H   H467      1.0  0.58834  0.84057  0.43590  1.0000
  H   H468      1.0  0.91084  0.99428  0.65457  1.0000
  C   C260      1.0  0.58656  0.94585  0.47294  1.0000
  C   C261      1.0  0.88883  0.97482  0.59883  1.0000
  C   C262      1.0  0.92959  0.98365  0.62836  1.0000
  S   S56       1.0  0.81007  0.95776  0.41418  1.0000
  H   H469      1.0  0.74980  0.94599  0.54677  1.0000
  H   H470      1.0  0.69258  0.87856  0.44779  1.0000
  C   C263      1.0  0.87486  0.84452  0.67857  1.0000
  C   C264      1.0  0.82861  0.82447  0.45186  1.0000
  H   H471      1.0  0.76789  0.77951  0.43070  1.0000
  C   C265      1.0  0.56887  0.98996  0.40505  1.0000
  N   N15       1.0  0.73600  0.82265  0.47548  1.0000
  H   H472      1.0  0.79152  0.85154  0.51294  1.0000
  C   C266      1.0  0.77232  0.81663  0.44371  1.0000
  H   H473      1.0  0.78829  0.77698  0.53475  1.0000
  C   C267      1.0  0.72145  0.87157  0.53647  1.0000
  C   C268      1.0  0.61714  0.99123  0.42032  1.0000
  H   H474      1.0  0.73898  0.67658  0.51860  1.0000
  C   C269      1.0  0.66275  0.80837  0.42983  1.0000
  H   H475      1.0  0.96588  0.86417  0.64990  1.0000
  C   C270      1.0  0.86102  0.81046  0.41883  1.0000
  H   H476      1.0  0.80007  0.73811  0.49512  1.0000
  H   H477      1.0  0.50846  0.92529  0.47173  1.0000
  H   H478      1.0  0.71632  0.83734  0.55288  1.0000
  H   H479      1.0  0.72724  0.71568  0.55830  1.0000
  H   H480      1.0  0.59312  0.92899  0.49945  1.0000
  H   H481      1.0  0.78808  0.68900  0.55112  1.0000
  H   H482      1.0  0.76389  0.84394  0.42153  1.0000
  H   H483      1.0  0.86722  0.94059  0.60417  1.0000
  H   H484      1.0  0.59950  0.81004  0.39256  1.0000
  H   H485      1.0  0.87009  0.92261  0.66868  1.0000
  H   H486      1.0  0.85080  0.83314  0.39451  1.0000
  H   H487      1.0  0.62668  0.86994  0.40127  1.0000
  C   C271      1.0  0.99750  0.95408  0.66752  1.0000
  C   C272      1.0  0.99697  0.93493  0.60044  1.0000
  S   S57       1.0  0.99557  0.66333  0.66003  1.0000
  Fe  Fe28      1.0  0.99402  0.73031  0.62271  1.0000
  C   C273      1.0  0.89986  0.89505  0.67408  1.0000
  H   H488      1.0  0.90575  0.97203  0.57101  1.0000
  H   H489      1.0  0.85450  0.83416  0.65312  1.0000
  H   H490      1.0  0.90302  0.81539  0.68456  1.0000
  C   C274      1.0  0.98749  0.75835  0.78141  1.0000
  Fe  Fe29      1.0  0.85670  0.87961  0.89514  1.0000
  S   S58       1.0  0.79109  0.84490  0.92447  1.0000
  S   S59       1.0  0.88294  0.87255  0.83571  1.0000
  Fe  Fe30      1.0  0.87759  0.95117  0.95901  1.0000
  S   S60       1.0  0.81417  0.92322  0.99350  1.0000
  Fe  Fe31      1.0  0.84089  0.84831  0.97466  1.0000
  S   S61       1.0  0.69426  0.96323  0.93192  1.0000
  Fe  Fe32      1.0  0.76853  0.92241  0.94121  1.0000
  H   H491      1.0  0.91602  0.85934  0.76190  1.0000
  S   S62       1.0  0.90743  0.87628  0.94376  1.0000
  S   S63       1.0  0.83100  0.95676  0.90843  1.0000
  C   C275      1.0  0.92382  0.64986  0.91677  1.0000
  C   C276      1.0  0.63062  0.94764  0.94108  1.0000
  H   H492      1.0  0.91342  0.61072  0.91122  1.0000
  H   H493      1.0  0.91791  0.90435  0.70060  1.0000
  H   H494      1.0  0.96088  0.65766  0.90432  1.0000
  C   C277      1.0  0.96252  0.62579  0.97799  1.0000
  C   C278      1.0  0.97739  0.75540  0.81930  1.0000
  C   C279      1.0  0.94512  0.78973  0.83651  1.0000
  C   C280      1.0  0.92305  0.82757  0.81588  1.0000
  C   C281      1.0  0.93326  0.83044  0.77803  1.0000
  C   C282      1.0  0.92456  0.66005  0.95812  1.0000
  H   H495      1.0  0.98292  0.93559  0.91004  1.0000
  H   H496      1.0  0.93699  0.78673  0.86556  1.0000
  H   H497      1.0  0.95014  0.58674  0.97387  1.0000
  H   H498      1.0  0.55606  0.86430  0.98540  1.0000
  C   C283      1.0  0.56605  0.89637  0.96918  1.0000
  C   C284      1.0  0.54174  0.96878  0.93468  1.0000
  N   N16       1.0  0.96983  0.63572  0.01848  1.0000
  C   C285      1.0  0.96504  0.79590  0.76083  1.0000
  C   C286      1.0  0.52803  0.92741  0.95558  1.0000
  H   H499      1.0  0.88620  0.65392  0.96870  1.0000
  H   H500      1.0  0.93408  0.69974  0.96179  1.0000
  H   H501      1.0  0.84788  0.84584  0.70178  1.0000
  H   H502      1.0  0.97201  0.79826  0.73164  1.0000
  H   H503      1.0  0.89589  0.67435  0.90342  1.0000
  H   H504      1.0  0.99903  0.84729  0.89512  1.0000
  C   C287      1.0  0.61694  0.90623  0.96190  1.0000
  H   H505      1.0  0.64551  0.88186  0.97252  1.0000
  H   H506      1.0  0.99400  0.72593  0.83522  1.0000
  H   H507      1.0  0.97343  0.96414  0.69138  1.0000
  H   H508      1.0  0.99817  0.62868  0.96263  1.0000
  H   H509      1.0  0.51314  0.99305  0.92401  1.0000
  C   C288      1.0  0.59264  0.97887  0.92766  1.0000
  S   S64       1.0  0.85320  0.78747  0.01624  1.0000
  H   H510      1.0  0.96284  0.98114  0.83366  1.0000
  H   H511      1.0  0.92994  0.99652  0.87562  1.0000
  H   H512      1.0  0.67992  0.98587  0.01711  1.0000
