data_image0
_chemical_formula_structural       CFeSFeHSHSCFeS2FeS2FeS2Fe2S3CSFeSFeCSFeS2H3C2H2C2HCH2C6H5SH3C6H4C6H13C2SH2NHNHCH2NH3CHCH2CH3CH3CHCH2CHCH3CH5FeHNC10SCH22CSCH2CHNC11H11CH2CH8CH4CNC10HCH21CHCSH5C2FeH2C2H5CHC2SH4CH2C2HC2HCHCHC2SCH5C2HCSHC3HCH2CHSH2CH3CH3CH2CHC2HCH7CH2CH3C2HFeS2FeS2FeHSFeSFeS3CFeS2CFeCFeSCH3SHCH3C6H4C6H4CH2CHC6H4C3H2C9H4CHNC5HC2H3CHCH9CH4CH4SH4C2NC9H3NC2H9CH6SHCHCH5C2H4C4H3CH2SH5NH4CH3CHSNC2HFeCHCHCH13CH2FeC2H6CH3C2HSH9C2H3CHC2HNHCH2CHCH2C2H5SH2FeSCH9FeH3C3H7CH2CH8C2SHSC2HCH4CHCH6CHSCHFeCSFeHCFeSCS2FeS2HSFeSFeH2C6H3C2HCHCH7SHC2H6CHCH4CHCSFeH4CHCH2CH2C2H2C3H2C3HCHCH2CSN2H2CHCH15CH2CHCH3CH4C2HCHC3HCH7SH2SHSH2C2H4CHCHSH2CHSCH2C2H2CHNH2FeHSH4CH2CHC3HSHC2FeSHFeSHFeSFeCSCFeS2FeSHFeSFeS3HC6H4C2SC2HCHCH2CH3C4H5CH2CH2SH2CH5CH4CH5CH3CH4NCH8CHCH3CNHSH6CH4CH4SH8C2H3CH2CH6C6H3CHCH3C3H3NC7HCHC2H2CH2CHSHFeSHFeS2FeSFeS3HFeHFeS2CHFeS2FeSFeHCHFeSH7C3HCH2C6H4C6H4C2HCH2C6H4C2HCHC2HCHCHCHNHCHC2H2CHCHCHCH8CH5CH4NCH2C2H2CH2C2HCH5CNHC2HC5NC2HCH12CH2CHCH2CS2H3CSHC2H2C3H3C2HCHSH2CHNH7C2HCHCH2C2H5FeH8CH6CHCH3C2H3C2H2CSCH3C2H3CH3C2H2CNCH4C2H2CH2C3H2CH3CHNH5CH7SH5CH5FeH6C2HCH5CSFeCSFeSHSFeNCFeS2HFeS3HFeSFeS2HFeCFeSHSC3H2CHC8H6C8H4SCHC8H5C3H3CH3NC2H3CH3CHCH3CH3SCH2CHCHCHCHNC12H30C3H2CH3CSHCNC6H3C2H13CH3SCHC2H5CHCH7CH2C2HFe2H9CHCH3CHCSH3CNC2H3CFeSH4CHCFeH9SCH7CH2CH8CHCSHSCHC2H2CHNSHCH3CHS2CH5CHC2HFeSHCHFeS2FeS2CFeS4FeS2FeSFeHFeS2FeSFeSFeS3C6H5CH2CHC6H5C2HC2HC3H4C7H4CH4NC4HCH14NC11H19CH6CHC2HCHC3HCH2CH7FeH5CH7NC8H3CH10C2H3C3H5SCH4CHCH2CH4CHNSH3CH4C3NHCH4C3HC3H6CHC4H4C2NH4CH2CHC2H3CH2C2H4C2H9CH4CHCH3CH2SHCH6CHC2HCH4C4HCHNH5SC2HSH2C2SH2SFeS2HFeSFeS3FeHSFeSFeSCSHFeS2CSFeSFeSHSFeSHC2H3C2HSHCH2C6H4C6H5C3H2C5HSCH4C6H4NH2C3H2CHC2H4C2HC2HCHCNH5CH2CH4CH2CH3C2HCHC3HCH4CFeH6NC9HC2H13NH3C2HCH4C3HC2SH7CHCNH2CHNC12H20C2H4CH3FeH2CH16CH2C2HC3H5C2H4CH3SHCH7CH4C2HNCH3SC2H4NH7CHSH2FeHSFeCSFeSHS2FeHSFeSHFeS3CH2CHC2H2C3H4CH4C3H2SH2NH2CH6C3H2CHC2HC3H5FeH2CH2CHC3H2SHCSC2HCHC3HSNH4C2H5CHC2H2CH7C2HC3NHSHCH4CH5CHCH2C3H2SH2SHC2H2CHCH2CHCHCHFeHCHNC3H3C2H5CH6CHC2H2CHC2H4CH4NCFeS2FeSCFeCFeSHSFeS2FeC2Fe2S3H6CHC3H5C2H4C3H5CH2CH2CHC7H6C2H2CH5SH2C2HSHCH2SH7CHCH5C2NC4H2CSH5CHCH3CS2H3CH2CHCHNHC2HCH7CHC3HCH7C2H4C3SCFeS2H2FeSCFeS2FeSCFeSFeS3FeS2HCH2CH2C4H3C6H5C3HCH3C6H4C6H4NCHC2H2CH2SH2CH2CHC2HC2H2CHCH12CH2CHFeHSH7C2H4C3HCS2HCH2NC4HC4H2CH11CH12CH3CH3CHC2H2FeHC2SCHCHC2SH3C2NCHCH2CSHCH4C2H6CH5CHFeSH4CH2CH4CH5CH7FeH2CHCHC2HFeHCHCHC2HNH4C2H4CH2C3HC2HCH5CH2CH2S2CHFeS2FeSFeS2CFeSHFe2S2CH2FeS3HFeSFeSHSC6H6FeC2HC2HSH2C6H6CH2C4HC3SHC6H5NHCHC2HC2H2CH4NH3CH3CH6CHC4SH2C3H8CHCH2CH2CH2CHCH6CH2C2H3C3H2C2H2CH4CSHNC2HC6HCH5CH7C2H4CH9NH2CH3C2H3C2HC2H2CHCHC2H3CH6CH3NH5CH7C3H3C2HCH2CH2CH2CH5SHCH3CHCHCHNH2SH2CHSCH5SH3CHCHCH2CNH2FeHCH3CH10S
_chemical_formula_sum              "C1152 Fe128 S256 H2048 N64"
_cell_length_a       56.9874
_cell_length_b       57.0436
_cell_length_c       37.4688
_cell_angle_alpha    90.5535
_cell_angle_beta     90.525
_cell_angle_gamma    88.2123

_space_group_name_H-M_alt    "P 1"
_space_group_IT_number       1

loop_
  _space_group_symop_operation_xyz
  'x, y, z'

loop_
  _atom_site_type_symbol
  _atom_site_label
  _atom_site_symmetry_multiplicity
  _atom_site_fract_x
  _atom_site_fract_y
  _atom_site_fract_z
  _atom_site_occupancy
  C   C1        1.0  0.44651  0.31959  0.14298  1.0000
  Fe  Fe1       1.0  0.09816  0.27902  0.01078  1.0000
  S   S1        1.0  0.09209  0.27732  0.07069  1.0000
  Fe  Fe2       1.0  0.31753  0.26946  0.02025  1.0000
  H   H1        1.0  0.12743  0.31467  0.06069  1.0000
  S   S2        1.0  0.27807  0.26095  0.02604  1.0000
  H   H2        1.0  0.44039  0.27899  0.04928  1.0000
  S   S3        1.0  0.38516  0.27681  0.00550  1.0000
  C   C2        1.0  0.06923  0.32079  0.07575  1.0000
  Fe  Fe3       1.0  0.36680  0.24476  0.02458  1.0000
  S   S4        1.0  0.39212  0.21375  0.03595  1.0000
  S   S5        1.0  0.34453  0.26425  0.06507  1.0000
  Fe  Fe4       1.0  0.44584  0.06652  0.19129  1.0000
  S   S6        1.0  0.47113  0.08907  0.22231  1.0000
  S   S7        1.0  0.45387  0.02635  0.18665  1.0000
  Fe  Fe5       1.0  0.41591  0.11066  0.16995  1.0000
  S   S8        1.0  0.43858  0.13482  0.20122  1.0000
  S   S9        1.0  0.38393  0.12779  0.14274  1.0000
  Fe  Fe6       1.0  0.46892  0.11444  0.17628  1.0000
  Fe  Fe7       1.0  0.43855  0.10757  0.24373  1.0000
  S   S10       1.0  0.43524  0.11292  0.30385  1.0000
  S   S11       1.0  0.44588  0.09093  0.14348  1.0000
  S   S12       1.0  0.41352  0.08432  0.21454  1.0000
  C   C3        1.0  0.45832  0.19513  0.14195  1.0000
  S   S13       1.0  0.36695  0.18640  0.38407  1.0000
  Fe  Fe8       1.0  0.14829  0.20147  0.44157  1.0000
  S   S14       1.0  0.18724  0.21054  0.43409  1.0000
  Fe  Fe9       1.0  0.10427  0.17788  0.40918  1.0000
  C   C4        1.0  0.23419  0.21585  0.45110  1.0000
  S   S15       1.0  0.09149  0.15683  0.36094  1.0000
  Fe  Fe10      1.0  0.09883  0.22582  0.44407  1.0000
  S   S16       1.0  0.07569  0.25921  0.44183  1.0000
  S   S17       1.0  0.12140  0.21223  0.39931  1.0000
  H   H3        1.0  0.47236  0.14675  0.05563  1.0000
  H   H4        1.0  0.23410  0.23725  0.02121  1.0000
  H   H5        1.0  0.44155  0.17855  0.45829  1.0000
  C   C5        1.0  0.07569  0.27880  0.40531  1.0000
  C   C6        1.0  0.05922  0.29766  0.40441  1.0000
  H   H6        1.0  0.02837  0.20646  0.00625  1.0000
  H   H7        1.0  0.40772  0.01966  0.31210  1.0000
  C   C7        1.0  0.09112  0.29207  0.34889  1.0000
  C   C8        1.0  0.09162  0.27603  0.37729  1.0000
  H   H8        1.0  0.04727  0.30034  0.42639  1.0000
  C   C9        1.0  0.07683  0.30044  0.09346  1.0000
  H   H9        1.0  0.10404  0.29026  0.32800  1.0000
  H   H10       1.0  0.10468  0.26188  0.37792  1.0000
  C   C10       1.0  0.06137  0.15172  0.35213  1.0000
  C   C11       1.0  0.05492  0.13845  0.32193  1.0000
  C   C12       1.0  0.03104  0.13521  0.31322  1.0000
  C   C13       1.0  0.01341  0.14554  0.33446  1.0000
  C   C14       1.0  0.01992  0.15861  0.36476  1.0000
  C   C15       1.0  0.04370  0.16147  0.37379  1.0000
  H   H11       1.0  0.06845  0.13078  0.30502  1.0000
  H   H12       1.0  0.02631  0.12522  0.28970  1.0000
  H   H13       1.0  0.00646  0.16660  0.38138  1.0000
  H   H14       1.0  0.04837  0.17151  0.39723  1.0000
  H   H15       1.0  0.23255  0.15950  0.38417  1.0000
  S   S18       1.0  0.13305  0.16577  0.44741  1.0000
  H   H16       1.0  0.47246  0.04096  0.25340  1.0000
  H   H17       1.0  0.24565  0.18717  0.39245  1.0000
  H   H18       1.0  0.20868  0.19143  0.35790  1.0000
  C   C16       1.0  0.41500  0.13272  0.32497  1.0000
  C   C17       1.0  0.40283  0.15044  0.30622  1.0000
  C   C18       1.0  0.38807  0.16671  0.32461  1.0000
  C   C19       1.0  0.38526  0.16533  0.36181  1.0000
  C   C20       1.0  0.39692  0.14723  0.38033  1.0000
  C   C21       1.0  0.41171  0.13105  0.36198  1.0000
  H   H19       1.0  0.40510  0.15179  0.27771  1.0000
  H   H20       1.0  0.37892  0.18053  0.31003  1.0000
  H   H21       1.0  0.39467  0.14581  0.40887  1.0000
  H   H22       1.0  0.42085  0.11730  0.37665  1.0000
  C   C22       1.0  0.38933  0.19009  0.06591  1.0000
  C   C23       1.0  0.40911  0.17543  0.07303  1.0000
  C   C24       1.0  0.40781  0.15650  0.09682  1.0000
  C   C25       1.0  0.38649  0.15166  0.11304  1.0000
  C   C26       1.0  0.36661  0.16604  0.10534  1.0000
  C   C27       1.0  0.36808  0.18540  0.08239  1.0000
  H   H23       1.0  0.42559  0.17883  0.06026  1.0000
  H   H24       1.0  0.42322  0.14553  0.10237  1.0000
  H   H25       1.0  0.34994  0.16219  0.11712  1.0000
  H   H26       1.0  0.35266  0.19634  0.07680  1.0000
  H   H27       1.0  0.46795  0.09356  0.04587  1.0000
  H   H28       1.0  0.47524  0.99991  0.32723  1.0000
  H   H29       1.0  0.41497  0.01319  0.23385  1.0000
  H   H30       1.0  0.19508  0.24745  0.99403  1.0000
  H   H31       1.0  0.24429  0.29442  0.11166  1.0000
  H   H32       1.0  0.46383  0.26793  0.07722  1.0000
  H   H33       1.0  0.41495  0.20808  0.29597  1.0000
  H   H34       1.0  0.07808  0.28269  0.14400  1.0000
  H   H35       1.0  0.30844  0.12328  0.42323  1.0000
  C   C28       1.0  0.25015  0.26948  0.00660  1.0000
  C   C29       1.0  0.23132  0.25405  0.00841  1.0000
  S   S19       1.0  0.47237  0.31606  0.16952  1.0000
  H   H36       1.0  0.25978  0.30380  0.99007  1.0000
  H   H37       1.0  0.40813  0.28554  0.09611  1.0000
  N   N1        1.0  0.45623  0.03361  0.32641  1.0000
  H   H38       1.0  0.00503  0.23089  0.46562  1.0000
  N   N2        1.0  0.17350  0.29885  0.08354  1.0000
  H   H39       1.0  0.30400  0.15041  0.44787  1.0000
  C   C30       1.0  0.48495  0.03296  0.27285  1.0000
  H   H40       1.0  0.12218  0.28798  0.18136  1.0000
  H   H41       1.0  0.46401  0.18394  0.16474  1.0000
  N   N3        1.0  0.48287  0.29242  0.01509  1.0000
  H   H42       1.0  0.23306  0.20083  0.33198  1.0000
  H   H43       1.0  0.43666  0.07647  0.35803  1.0000
  H   H44       1.0  0.47887  0.06133  0.30955  1.0000
  C   C31       1.0  0.07421  0.31052  0.34747  1.0000
  H   H45       1.0  0.01025  0.23210  0.01624  1.0000
  C   C32       1.0  0.45683  0.00701  0.32489  1.0000
  H   H46       1.0  0.01413  0.29388  0.98167  1.0000
  H   H47       1.0  0.43097  0.24063  0.07132  1.0000
  C   C33       1.0  0.44645  0.99974  0.20876  1.0000
  H   H48       1.0  0.47379  0.20435  0.13208  1.0000
  H   H49       1.0  0.27543  0.10580  0.45483  1.0000
  H   H50       1.0  0.13788  0.23776  0.07134  1.0000
  C   C34       1.0  0.42660  0.99804  0.23031  1.0000
  H   H51       1.0  0.39405  0.04788  0.26600  1.0000
  H   H52       1.0  0.12934  0.29682  0.11863  1.0000
  H   H53       1.0  0.46819  0.07822  0.35861  1.0000
  C   C35       1.0  0.25608  0.20964  0.46711  1.0000
  H   H54       1.0  0.45167  0.18373  0.12012  1.0000
  C   C36       1.0  0.44445  0.24159  0.05022  1.0000
  H   H55       1.0  0.46428  0.26229  0.99515  1.0000
  H   H56       1.0  0.15319  0.28807  0.19138  1.0000
  C   C37       1.0  0.47455  0.13072  0.03878  1.0000
  H   H57       1.0  0.36034  0.28969  0.17718  1.0000
  C   C38       1.0  0.99351  0.27601  0.44049  1.0000
  H   H58       1.0  0.15624  0.23343  0.03234  1.0000
  H   H59       1.0  0.16532  0.28019  0.03454  1.0000
  H   H60       1.0  0.01593  0.03745  0.19644  1.0000
  C   C39       1.0  0.44327  0.99397  0.35409  1.0000
  H   H61       1.0  0.99837  0.31870  0.39683  1.0000
  H   H62       1.0  0.22038  0.17254  0.32302  1.0000
  H   H63       1.0  0.39173  0.28743  0.17238  1.0000
  H   H64       1.0  0.45253  0.99570  0.38018  1.0000
  H   H65       1.0  0.43673  0.13802  0.43523  1.0000
  Fe  Fe11      1.0  0.36186  0.29633  0.04416  1.0000
  H   H66       1.0  0.48046  0.29381  0.37866  1.0000
  N   N4        1.0  0.39989  0.21540  0.18770  1.0000
  C   C40       1.0  0.41668  0.20071  0.16529  1.0000
  C   C41       1.0  0.37720  0.20260  0.19106  1.0000
  C   C42       1.0  0.39448  0.23780  0.16750  1.0000
  C   C43       1.0  0.40989  0.22146  0.22408  1.0000
  C   C44       1.0  0.42725  0.20315  0.24134  1.0000
  C   C45       1.0  0.43933  0.21296  0.15381  1.0000
  C   C46       1.0  0.37508  0.25436  0.18353  1.0000
  C   C47       1.0  0.37852  0.17884  0.21073  1.0000
  C   C48       1.0  0.35487  0.16693  0.20969  1.0000
  C   C49       1.0  0.43157  0.20873  0.28078  1.0000
  S   S20       1.0  0.08046  0.19184  0.45237  1.0000
  C   C50       1.0  0.37503  0.27858  0.16640  1.0000
  H   H67       1.0  0.40769  0.19515  0.14034  1.0000
  H   H68       1.0  0.42184  0.18405  0.17858  1.0000
  H   H69       1.0  0.36402  0.21341  0.20611  1.0000
  H   H70       1.0  0.36940  0.19957  0.16404  1.0000
  H   H71       1.0  0.38910  0.23373  0.13940  1.0000
  H   H72       1.0  0.41052  0.24836  0.16547  1.0000
  H   H73       1.0  0.41957  0.23812  0.22315  1.0000
  H   H74       1.0  0.39535  0.22511  0.24323  1.0000
  H   H75       1.0  0.44448  0.20319  0.22778  1.0000
  H   H76       1.0  0.42100  0.18504  0.23951  1.0000
  H   H77       1.0  0.43527  0.22466  0.13090  1.0000
  H   H78       1.0  0.44658  0.22386  0.17570  1.0000
  H   H79       1.0  0.37756  0.25671  0.21273  1.0000
  H   H80       1.0  0.35749  0.24709  0.17841  1.0000
  H   H81       1.0  0.39158  0.16646  0.19860  1.0000
  H   H82       1.0  0.38291  0.18170  0.23929  1.0000
  H   H83       1.0  0.34914  0.16375  0.18172  1.0000
  H   H84       1.0  0.35663  0.14967  0.22308  1.0000
  H   H85       1.0  0.34128  0.17786  0.22364  1.0000
  H   H86       1.0  0.45135  0.09497  0.41323  1.0000
  H   H87       1.0  0.44416  0.19550  0.29222  1.0000
  H   H88       1.0  0.43905  0.22639  0.28404  1.0000
  C   C51       1.0  0.45497  0.26585  0.05094  1.0000
  S   S21       1.0  0.33922  0.24764  0.98124  1.0000
  C   C52       1.0  0.00987  0.19078  0.25405  1.0000
  H   H89       1.0  0.46971  0.30688  0.06537  1.0000
  H   H90       1.0  0.47839  0.10854  0.08556  1.0000
  C   C53       1.0  0.20905  0.25983  0.99314  1.0000
  H   H91       1.0  0.43121  0.30021  0.00288  1.0000
  N   N5        1.0  0.28520  0.15983  0.37911  1.0000
  C   C54       1.0  0.26483  0.16434  0.35375  1.0000
  C   C55       1.0  0.30456  0.14645  0.35965  1.0000
  C   C56       1.0  0.27654  0.14414  0.40824  1.0000
  C   C57       1.0  0.29442  0.18206  0.39577  1.0000
  C   C58       1.0  0.29220  0.20475  0.37310  1.0000
  C   C59       1.0  0.24187  0.17402  0.37141  1.0000
  C   C60       1.0  0.16833  0.29900  0.12310  1.0000
  C   C61       1.0  0.31551  0.15869  0.32739  1.0000
  C   C62       1.0  0.33302  0.14215  0.30829  1.0000
  C   C63       1.0  0.30597  0.22466  0.38976  1.0000
  C   C64       1.0  0.28393  0.12164  0.46567  1.0000
  H   H92       1.0  0.01775  0.28228  0.37958  1.0000
  H   H93       1.0  0.26033  0.14781  0.33948  1.0000
  H   H94       1.0  0.26951  0.17649  0.33225  1.0000
  H   H95       1.0  0.31972  0.14277  0.37790  1.0000
  H   H96       1.0  0.29823  0.12908  0.35047  1.0000
  H   H97       1.0  0.26813  0.12844  0.39640  1.0000
  H   H98       1.0  0.26277  0.15354  0.42427  1.0000
  H   H99       1.0  0.28534  0.18626  0.42125  1.0000
  H   H100      1.0  0.31322  0.17940  0.40378  1.0000
  H   H101      1.0  0.27359  0.21095  0.37125  1.0000
  H   H102      1.0  0.29864  0.20200  0.34559  1.0000
  C   C65       1.0  0.00071  0.28683  0.36658  1.0000
  H   H103      1.0  0.37264  0.27712  0.13700  1.0000
  H   H104      1.0  0.18181  0.28825  0.13790  1.0000
  C   C66       1.0  0.45312  0.06926  0.37023  1.0000
  H   H105      1.0  0.30210  0.16439  0.30745  1.0000
  H   H106      1.0  0.32544  0.17405  0.33670  1.0000
  H   H107      1.0  0.34163  0.15169  0.28656  1.0000
  H   H108      1.0  0.34691  0.13570  0.32712  1.0000
  H   H109      1.0  0.32397  0.12693  0.29645  1.0000
  H   H110      1.0  0.32502  0.21996  0.39047  1.0000
  H   H111      1.0  0.30339  0.24076  0.37358  1.0000
  H   H112      1.0  0.29980  0.22856  0.41726  1.0000
  C   C67       1.0  0.21691  0.18165  0.47591  1.0000
  H   H113      1.0  0.20387  0.29468  0.04939  1.0000
  H   H114      1.0  0.23255  0.23162  0.43535  1.0000
  H   H115      1.0  0.44551  0.15798  0.40108  1.0000
  H   H116      1.0  0.99672  0.20555  0.25494  1.0000
  C   C68       1.0  0.29516  0.13530  0.43573  1.0000
  N   N6        1.0  0.06458  0.22328  0.29153  1.0000
  C   C69       1.0  0.04232  0.21850  0.27090  1.0000
  C   C70       1.0  0.07094  0.24841  0.28582  1.0000
  C   C71       1.0  0.08366  0.20640  0.27852  1.0000
  C   C72       1.0  0.06142  0.21953  0.33093  1.0000
  C   C73       1.0  0.04168  0.23461  0.34893  1.0000
  C   C74       1.0  0.03025  0.19528  0.27979  1.0000
  C   C75       1.0  0.10894  0.21111  0.29197  1.0000
  C   C76       1.0  0.07616  0.25516  0.24673  1.0000
  C   C77       1.0  0.08229  0.28099  0.24431  1.0000
  C   C78       1.0  0.03655  0.22539  0.38607  1.0000
  H   H117      1.0  0.39457  0.99105  0.12764  1.0000
  C   C79       1.0  0.12621  0.19184  0.27926  1.0000
  H   H118      1.0  0.04592  0.21792  0.24175  1.0000
  H   H119      1.0  0.02913  0.23315  0.27431  1.0000
  H   H120      1.0  0.05641  0.26052  0.29475  1.0000
  H   H121      1.0  0.08623  0.25300  0.30287  1.0000
  H   H122      1.0  0.08406  0.20580  0.24882  1.0000
  H   H123      1.0  0.07985  0.18820  0.28673  1.0000
  H   H124      1.0  0.05865  0.20070  0.33642  1.0000
  H   H125      1.0  0.07770  0.22364  0.34597  1.0000
  H   H126      1.0  0.02504  0.23482  0.33343  1.0000
  H   H127      1.0  0.04737  0.25297  0.35198  1.0000
  H   H128      1.0  0.04275  0.18007  0.27779  1.0000
  H   H129      1.0  0.02306  0.19591  0.30722  1.0000
  H   H130      1.0  0.10993  0.21148  0.32147  1.0000
  H   H131      1.0  0.11513  0.22805  0.28194  1.0000
  H   H132      1.0  0.09108  0.24449  0.23582  1.0000
  H   H133      1.0  0.06057  0.25262  0.22935  1.0000
  H   H134      1.0  0.09840  0.28456  0.26010  1.0000
  H   H135      1.0  0.08536  0.28560  0.21607  1.0000
  H   H136      1.0  0.06760  0.29244  0.25438  1.0000
  H   H137      1.0  0.01303  0.31544  0.33377  1.0000
  H   H138      1.0  0.02640  0.23876  0.40145  1.0000
  C   C80       1.0  0.47899  0.04187  0.31113  1.0000
  H   H139      1.0  0.46240  0.13204  0.01558  1.0000
  C   C81       1.0  0.21439  0.20198  0.45545  1.0000
  S   S22       1.0  0.34030  0.21708  0.46889  1.0000
  H   H140      1.0  0.14416  0.19567  0.28906  1.0000
  H   H141      1.0  0.12134  0.17458  0.29006  1.0000
  H   H142      1.0  0.12644  0.19085  0.24964  1.0000
  H   H143      1.0  0.43576  0.23827  0.02406  1.0000
  H   H144      1.0  0.45050  0.00076  0.29834  1.0000
  C   C82       1.0  0.43636  0.04361  0.30386  1.0000
  C   C83       1.0  0.41126  0.03851  0.31635  1.0000
  Fe  Fe12      1.0  0.36365  0.18851  0.44478  1.0000
  H   H145      1.0  0.14388  0.27029  0.13168  1.0000
  H   H146      1.0  0.20207  0.17049  0.47872  1.0000
  C   C84       1.0  0.39291  0.05258  0.29478  1.0000
  C   C85       1.0  0.00596  0.29761  0.33050  1.0000
  H   H147      1.0  0.43961  0.03538  0.37851  1.0000
  H   H148      1.0  0.43792  0.06288  0.30109  1.0000
  H   H149      1.0  0.43753  0.03675  0.27607  1.0000
  H   H150      1.0  0.40866  0.04321  0.34482  1.0000
  H   H151      1.0  0.99664  0.26151  0.42130  1.0000
  C   C86       1.0  0.14418  0.28963  0.13467  1.0000
  H   H152      1.0  0.01105  0.28367  0.44516  1.0000
  C   C87       1.0  0.99656  0.03774  0.19952  1.0000
  C   C88       1.0  0.07218  0.29834  0.13009  1.0000
  S   S23       1.0  0.33295  0.30347  0.00342  1.0000
  H   H153      1.0  0.37505  0.04863  0.30417  1.0000
  H   H154      1.0  0.39550  0.07172  0.29818  1.0000
  H   H155      1.0  0.44857  0.11339  0.07007  1.0000
  H   H156      1.0  0.02626  0.20925  0.38403  1.0000
  C   C89       1.0  0.05821  0.31324  0.37539  1.0000
  H   H157      1.0  0.05575  0.31427  0.17671  1.0000
  H   H158      1.0  0.16269  0.21734  0.07238  1.0000
  C   C90       1.0  0.47278  0.26847  0.02030  1.0000
  C   C91       1.0  0.01483  0.21890  0.99524  1.0000
  H   H159      1.0  0.45818  0.22772  0.05508  1.0000
  C   C92       1.0  0.17216  0.25386  0.07477  1.0000
  C   C93       1.0  0.45126  0.14890  0.42591  1.0000
  H   H160      1.0  0.14323  0.27917  0.06671  1.0000
  C   C94       1.0  0.15615  0.23450  0.06190  1.0000
  H   H161      1.0  0.01637  0.18849  0.22634  1.0000
  C   C95       1.0  0.16257  0.27863  0.06387  1.0000
  H   H162      1.0  0.20686  0.28012  0.09096  1.0000
  C   C96       1.0  0.45252  0.07561  0.40996  1.0000
  C   C97       1.0  0.45499  0.04228  0.36463  1.0000
  S   S24       1.0  0.34782  0.15972  0.47573  1.0000
  C   C98       1.0  0.05954  0.31620  0.14867  1.0000
  H   H163      1.0  0.18964  0.25028  0.06265  1.0000
  H   H164      1.0  0.17439  0.25238  0.10407  1.0000
  H   H165      1.0  0.46122  0.28832  0.41540  1.0000
  H   H166      1.0  0.43695  0.06814  0.42278  1.0000
  H   H167      1.0  0.44452  0.28241  0.13314  1.0000
  C   C99       1.0  0.46766  0.30704  0.99004  1.0000
  C   C100      1.0  0.45742  0.16711  0.45428  1.0000
  H   H168      1.0  0.42509  0.00102  0.35724  1.0000
  C   C101      1.0  0.22504  0.18536  0.34422  1.0000
  S   S25       1.0  0.12058  0.25080  0.98415  1.0000
  H   H169      1.0  0.05310  0.22150  0.40098  1.0000
  C   C102      1.0  0.41578  0.30119  0.10715  1.0000
  C   C103      1.0  0.43642  0.29947  0.12811  1.0000
  C   C104      1.0  0.24594  0.29128  0.99049  1.0000
  H   H170      1.0  0.47156  0.17776  0.44330  1.0000
  C   C105      1.0  0.46700  0.11023  0.06142  1.0000
  H   H171      1.0  0.99169  0.27027  0.36136  1.0000
  H   H172      1.0  0.00113  0.17446  0.26174  1.0000
  C   C106      1.0  0.19977  0.29645  0.07831  1.0000
  H   H173      1.0  0.47062  0.03546  0.37986  1.0000
  S   S26       1.0  0.11638  0.30864  0.98532  1.0000
  H   H174      1.0  0.46677  0.13740  0.41955  1.0000
  H   H175      1.0  0.47032  0.30491  0.47468  1.0000
  C   C107      1.0  0.24084  0.30969  0.09399  1.0000
  H   H176      1.0  0.01916  0.28646  0.31609  1.0000
  H   H177      1.0  0.46874  0.06900  0.42368  1.0000
  H   H178      1.0  0.48419  0.01362  0.27020  1.0000
  C   C108      1.0  0.99289  0.20586  0.98385  1.0000
  H   H179      1.0  0.46367  0.31779  0.39840  1.0000
  H   H180      1.0  0.48711  0.25534  0.02635  1.0000
  H   H181      1.0  0.48737  0.17325  0.02177  1.0000
  C   C109      1.0  0.13913  0.29554  0.17376  1.0000
  H   H182      1.0  0.27094  0.22072  0.46383  1.0000
  H   H183      1.0  0.40790  0.99061  0.08396  1.0000
  C   C110      1.0  0.47345  0.30108  0.40419  1.0000
  H   H184      1.0  0.24698  0.30512  0.06666  1.0000
  C   C111      1.0  0.44314  0.31518  0.00386  1.0000
  C   C112      1.0  0.48644  0.30445  0.05071  1.0000
  H   H185      1.0  0.37667  0.99575  0.08832  1.0000
  C   C113      1.0  0.48472  0.31609  0.46591  1.0000
  H   H186      1.0  0.99393  0.06755  0.07279  1.0000
  H   H187      1.0  0.99143  0.05587  0.15003  1.0000
  H   H188      1.0  0.99145  0.05271  0.21717  1.0000
  H   H189      1.0  0.99056  0.02472  0.14694  1.0000
  H   H190      1.0  0.99164  0.02117  0.21241  1.0000
  H   H191      1.0  0.13767  0.31485  0.17784  1.0000
  H   H192      1.0  0.99273  0.32020  0.45963  1.0000
  C   C114      1.0  0.21469  0.31665  0.09342  1.0000
  H   H193      1.0  0.98974  0.29870  0.31398  1.0000
  H   H194      1.0  0.16987  0.31709  0.13414  1.0000
  C   C115      1.0  0.16519  0.32155  0.06642  1.0000
  H   H195      1.0  0.20946  0.32151  0.12102  1.0000
  H   H196      1.0  0.16929  0.32107  0.03731  1.0000
  H   H197      1.0  0.02241  0.22814  0.97228  1.0000
  C   C116      1.0  0.28778  0.23697  0.92881  1.0000
  C   C117      1.0  0.99807  0.20417  0.79620  1.0000
  H   H198      1.0  0.18861  0.25025  0.50086  1.0000
  Fe  Fe13      1.0  0.09388  0.25233  0.93888  1.0000
  S   S27       1.0  0.06960  0.22483  0.91522  1.0000
  S   S28       1.0  0.11299  0.28020  0.90936  1.0000
  Fe  Fe14      1.0  0.04712  0.12949  0.76673  1.0000
  S   S29       1.0  0.01989  0.15102  0.73764  1.0000
  S   S30       1.0  0.07839  0.14854  0.79015  1.0000
  Fe  Fe15      1.0  0.02339  0.08286  0.74658  1.0000
  H   H199      1.0  0.43797  0.17823  0.53326  1.0000
  S   S31       1.0  0.02820  0.04270  0.75580  1.0000
  Fe  Fe16      1.0  0.02286  0.12412  0.69406  1.0000
  S   S32       1.0  0.02144  0.13675  0.63635  1.0000
  Fe  Fe17      1.0  0.13823  0.28072  0.95702  1.0000
  S   S33       1.0  0.05204  0.10360  0.72121  1.0000
  S   S34       1.0  0.02091  0.10757  0.79471  1.0000
  S   S35       1.0  0.35541  0.29253  0.90752  1.0000
  C   C118      1.0  0.40131  0.30635  0.89779  1.0000
  Fe  Fe18      1.0  0.36795  0.21973  0.51238  1.0000
  S   S36       1.0  0.35149  0.19282  0.54723  1.0000
  S   S37       1.0  0.38838  0.25181  0.53005  1.0000
  C   C119      1.0  0.46521  0.15517  0.48968  1.0000
  Fe  Fe19      1.0  0.32524  0.18828  0.50158  1.0000
  C   C120      1.0  0.05539  0.99935  0.57241  1.0000
  Fe  Fe20      1.0  0.37511  0.16690  0.51800  1.0000
  S   S38       1.0  0.39802  0.13686  0.54031  1.0000
  C   C121      1.0  0.43419  0.18987  0.72446  1.0000
  H   H200      1.0  0.26313  0.23714  0.88435  1.0000
  H   H201      1.0  0.29454  0.24923  0.94923  1.0000
  H   H202      1.0  0.08721  0.06393  0.70374  1.0000
  S   S39       1.0  0.10976  0.16474  0.54444  1.0000
  H   H203      1.0  0.31761  0.29565  0.85275  1.0000
  C   C122      1.0  0.45421  0.18810  0.52819  1.0000
  H   H204      1.0  0.99434  0.15225  0.52693  1.0000
  H   H205      1.0  0.00816  0.24778  0.71038  1.0000
  H   H206      1.0  0.06890  0.08689  0.51376  1.0000
  C   C123      1.0  0.38289  0.30059  0.62871  1.0000
  C   C124      1.0  0.36368  0.28713  0.61829  1.0000
  C   C125      1.0  0.36515  0.27177  0.58857  1.0000
  C   C126      1.0  0.38586  0.26982  0.56885  1.0000
  C   C127      1.0  0.40505  0.28334  0.57927  1.0000
  C   C128      1.0  0.40363  0.29852  0.60914  1.0000
  H   H207      1.0  0.22273  0.16665  0.66928  1.0000
  H   H208      1.0  0.35011  0.26186  0.58044  1.0000
  H   H209      1.0  0.42108  0.28212  0.56406  1.0000
  H   H210      1.0  0.47967  0.10564  0.89751  1.0000
  C   C129      1.0  0.44747  0.14213  0.63781  1.0000
  C   C130      1.0  0.44580  0.12104  0.61874  1.0000
  C   C131      1.0  0.43044  0.11963  0.58908  1.0000
  C   C132      1.0  0.41646  0.13916  0.57849  1.0000
  C   C133      1.0  0.41795  0.16013  0.59785  1.0000
  C   C134      1.0  0.43352  0.16161  0.62713  1.0000
  H   H211      1.0  0.45633  0.10585  0.62679  1.0000
  H   H212      1.0  0.42933  0.10329  0.57435  1.0000
  H   H213      1.0  0.40721  0.17520  0.59005  1.0000
  H   H214      1.0  0.43510  0.17801  0.64131  1.0000
  C   C135      1.0  0.29967  0.26292  0.86262  1.0000
  H   H215      1.0  0.09731  0.03773  0.68001  1.0000
  H   H216      1.0  0.43365  0.22159  0.75557  1.0000
  C   C136      1.0  0.41923  0.31628  0.87764  1.0000
  H   H217      1.0  0.99798  0.26302  0.94868  1.0000
  C   C137      1.0  0.08493  0.15814  0.57025  1.0000
  C   C138      1.0  0.06200  0.16315  0.55839  1.0000
  C   C139      1.0  0.04279  0.15684  0.57929  1.0000
  C   C140      1.0  0.04625  0.14562  0.61224  1.0000
  C   C141      1.0  0.06918  0.14089  0.62434  1.0000
  C   C142      1.0  0.08841  0.14712  0.60341  1.0000
  H   H218      1.0  0.05909  0.17164  0.53297  1.0000
  H   H219      1.0  0.02515  0.16070  0.56987  1.0000
  H   H220      1.0  0.07210  0.13219  0.64959  1.0000
  H   H221      1.0  0.10608  0.14317  0.61280  1.0000
  C   C143      1.0  0.02353  0.01457  0.73497  1.0000
  C   C144      1.0  0.01172  0.01201  0.70222  1.0000
  C   C145      1.0  0.44041  0.17446  0.75657  1.0000
  H   H222      1.0  0.15611  0.13637  0.51020  1.0000
  H   H223      1.0  0.01047  0.17383  0.96775  1.0000
  C   C146      1.0  0.08244  0.04605  0.69490  1.0000
  C   C147      1.0  0.01201  0.27316  0.89877  1.0000
  C   C148      1.0  0.04902  0.31394  0.86202  1.0000
  C   C149      1.0  0.07245  0.20499  0.87865  1.0000
  C   C150      1.0  0.05258  0.19275  0.86752  1.0000
  C   C151      1.0  0.05413  0.17553  0.84038  1.0000
  C   C152      1.0  0.07556  0.17058  0.82368  1.0000
  C   C153      1.0  0.09530  0.18332  0.83399  1.0000
  C   C154      1.0  0.09378  0.20046  0.86137  1.0000
  H   H224      1.0  0.03598  0.19638  0.88038  1.0000
  H   H225      1.0  0.03887  0.16580  0.83269  1.0000
  H   H226      1.0  0.11197  0.17956  0.82125  1.0000
  H   H227      1.0  0.10923  0.20967  0.86975  1.0000
  C   C155      1.0  0.25861  0.18932  0.48765  1.0000
  H   H228      1.0  0.01622  0.05833  0.65079  1.0000
  N   N7        1.0  0.04355  0.06254  0.61148  1.0000
  C   C156      1.0  0.06316  0.06291  0.63884  1.0000
  C   C157      1.0  0.04823  0.07945  0.58156  1.0000
  C   C158      1.0  0.02125  0.07088  0.62990  1.0000
  C   C159      1.0  0.03961  0.03817  0.59702  1.0000
  C   C160      1.0  0.06129  0.02467  0.58175  1.0000
  H   H229      1.0  0.41850  0.30877  0.61697  1.0000
  C   C161      1.0  0.06023  0.04700  0.67171  1.0000
  C   C162      1.0  0.07420  0.08297  0.57118  1.0000
  H   H230      1.0  0.07105  0.99009  0.56095  1.0000
  H   H231      1.0  0.22087  0.31394  0.96271  1.0000
  H   H232      1.0  0.02918  0.27781  0.91060  1.0000
  C   C163      1.0  0.99228  0.27512  0.92701  1.0000
  H   H233      1.0  0.06527  0.08120  0.64895  1.0000
  C   C164      1.0  0.23874  0.17553  0.49216  1.0000
  H   H234      1.0  0.03834  0.07449  0.55699  1.0000
  H   H235      1.0  0.04149  0.09745  0.58871  1.0000
  H   H236      1.0  0.01821  0.23565  0.90648  1.0000
  H   H237      1.0  0.46143  0.12835  0.91787  1.0000
  H   H238      1.0  0.03173  0.02707  0.61781  1.0000
  H   H239      1.0  0.02636  0.03876  0.57505  1.0000
  H   H240      1.0  0.07610  0.02387  0.60110  1.0000
  H   H241      1.0  0.06696  0.03301  0.55680  1.0000
  H   H242      1.0  0.06017  0.29898  0.86917  1.0000
  C   C165      1.0  0.27625  0.21699  0.94831  1.0000
  H   H243      1.0  0.06571  0.11391  0.53915  1.0000
  H   H244      1.0  0.29689  0.28801  0.81795  1.0000
  H   H245      1.0  0.47712  0.15107  0.97010  1.0000
  H   H246      1.0  0.08405  0.06616  0.56723  1.0000
  C   C166      1.0  0.21042  0.18161  0.67538  1.0000
  H   H247      1.0  0.44046  0.23216  0.59082  1.0000
  H   H248      1.0  0.05056  0.17882  0.68381  1.0000
  H   H249      1.0  0.04087  0.99888  0.55243  1.0000
  H   H250      1.0  0.99742  0.21392  0.82192  1.0000
  S   S40       1.0  0.39250  0.19370  0.48490  1.0000
  H   H251      1.0  0.11050  0.26772  0.79402  1.0000
  H   H252      1.0  0.42430  0.16974  0.77098  1.0000
  H   H253      1.0  0.99908  0.28434  0.67754  1.0000
  H   H254      1.0  0.04576  0.05406  0.68852  1.0000
  C   C167      1.0  0.03906  0.26081  0.74044  1.0000
  C   C168      1.0  0.07313  0.26130  0.79984  1.0000
  N   N8        1.0  0.41392  0.22971  0.70713  1.0000
  C   C169      1.0  0.39982  0.24961  0.72415  1.0000
  C   C170      1.0  0.39882  0.21639  0.68084  1.0000
  C   C171      1.0  0.43582  0.23803  0.68939  1.0000
  C   C172      1.0  0.43263  0.25879  0.66332  1.0000
  C   C173      1.0  0.41302  0.26428  0.75248  1.0000
  C   C174      1.0  0.37954  0.23055  0.66009  1.0000
  C   C175      1.0  0.36930  0.21590  0.62974  1.0000
  C   C176      1.0  0.45639  0.26697  0.65057  1.0000
  C   C177      1.0  0.39841  0.28587  0.76381  1.0000
  H   H255      1.0  0.38394  0.24273  0.73713  1.0000
  H   H256      1.0  0.39288  0.26213  0.70383  1.0000
  H   H257      1.0  0.02976  0.24686  0.86588  1.0000
  N   N9        1.0  0.47427  0.17130  0.51854  1.0000
  C   C178      1.0  0.33032  0.26997  0.81553  1.0000
  C   C179      1.0  0.17930  0.16977  0.55234  1.0000
  H   H258      1.0  0.42356  0.27418  0.67586  1.0000
  H   H259      1.0  0.42264  0.25329  0.63939  1.0000
  H   H260      1.0  0.41676  0.25390  0.77689  1.0000
  H   H261      1.0  0.42983  0.27048  0.74198  1.0000
  H   H262      1.0  0.36495  0.23573  0.67832  1.0000
  H   H263      1.0  0.38628  0.24666  0.64842  1.0000
  H   H264      1.0  0.38272  0.21253  0.60883  1.0000
  H   H265      1.0  0.36308  0.19891  0.63971  1.0000
  H   H266      1.0  0.35414  0.22558  0.61741  1.0000
  C   C180      1.0  0.21924  0.30098  0.85636  1.0000
  H   H267      1.0  0.16477  0.11130  0.53652  1.0000
  H   H268      1.0  0.27654  0.28747  0.93741  1.0000
  H   H269      1.0  0.38249  0.28075  0.77835  1.0000
  H   H270      1.0  0.40931  0.29670  0.78170  1.0000
  H   H271      1.0  0.39313  0.29669  0.74039  1.0000
  H   H272      1.0  0.04111  0.99559  0.77745  1.0000
  S   S41       1.0  0.17773  0.28949  0.95481  1.0000
  H   H273      1.0  0.29479  0.24739  0.84618  1.0000
  C   C181      1.0  0.01468  0.24811  0.88438  1.0000
  H   H274      1.0  0.02210  0.11770  0.91333  1.0000
  C   C182      1.0  0.06805  0.18182  0.69609  1.0000
  H   H275      1.0  0.21614  0.29282  0.82976  1.0000
  H   H276      1.0  0.30519  0.28532  0.92104  1.0000
  H   H277      1.0  0.02979  0.27006  0.76284  1.0000
  H   H278      1.0  0.05503  0.18747  0.74904  1.0000
  H   H279      1.0  0.15318  0.20673  0.64496  1.0000
  C   C183      1.0  0.01507  0.12555  0.88826  1.0000
  C   C184      1.0  0.42142  0.21304  0.73654  1.0000
  H   H280      1.0  0.06146  0.25710  0.82226  1.0000
  H   H281      1.0  0.34475  0.26372  0.83357  1.0000
  H   H282      1.0  0.26459  0.29664  0.84718  1.0000
  H   H283      1.0  0.03218  0.25594  0.68311  1.0000
  C   C185      1.0  0.06570  0.19705  0.72977  1.0000
  C   C186      1.0  0.07299  0.24186  0.77048  1.0000
  C   C187      1.0  0.20293  0.19426  0.64115  1.0000
  C   C188      1.0  0.22370  0.29708  0.97529  1.0000
  H   H284      1.0  0.40588  0.20821  0.75249  1.0000
  H   H285      1.0  0.05327  0.27265  0.73242  1.0000
  H   H286      1.0  0.04353  0.21140  0.79298  1.0000
  C   C189      1.0  0.00980  0.21845  0.76740  1.0000
  H   H287      1.0  0.33745  0.28329  0.79747  1.0000
  H   H288      1.0  0.03764  0.21779  0.70632  1.0000
  S   S42       1.0  0.99419  0.10223  0.71662  1.0000
  H   H289      1.0  0.02418  0.08771  0.64431  1.0000
  H   H290      1.0  0.05639  0.02873  0.66382  1.0000
  H   H291      1.0  0.11637  0.22746  0.59270  1.0000
  H   H292      1.0  0.06750  0.27860  0.78892  1.0000
  H   H293      1.0  0.00780  0.18721  0.80019  1.0000
  N   N10       1.0  0.04952  0.23747  0.75281  1.0000
  H   H294      1.0  0.42305  0.17949  0.70617  1.0000
  H   H295      1.0  0.19718  0.25543  0.54668  1.0000
  H   H296      1.0  0.46599  0.25253  0.63647  1.0000
  H   H297      1.0  0.03352  0.29684  0.81639  1.0000
  C   C190      1.0  0.16977  0.12921  0.52881  1.0000
  H   H298      1.0  0.43630  0.23373  0.54332  1.0000
  H   H299      1.0  0.09756  0.27904  0.83448  1.0000
  H   H300      1.0  0.45375  0.28182  0.63185  1.0000
  C   C191      1.0  0.37836  0.30600  0.88429  1.0000
  H   H301      1.0  0.30270  0.22907  0.91364  1.0000
  S   S43       1.0  0.07020  0.27800  0.96859  1.0000
  N   N11       1.0  0.27903  0.27125  0.88497  1.0000
  C   C192      1.0  0.25957  0.28037  0.86072  1.0000
  C   C193      1.0  0.28668  0.28912  0.91251  1.0000
  H   H302      1.0  0.08017  0.22563  0.78346  1.0000
  Fe  Fe21      1.0  0.99361  0.12798  0.76292  1.0000
  C   C194      1.0  0.31016  0.28103  0.83721  1.0000
  H   H303      1.0  0.11873  0.23344  0.63993  1.0000
  C   C195      1.0  0.07582  0.09702  0.53680  1.0000
  H   H304      1.0  0.25648  0.26755  0.83864  1.0000
  C   C196      1.0  0.02217  0.26058  0.70764  1.0000
  H   H305      1.0  0.42090  0.21239  0.56877  1.0000
  H   H306      1.0  0.21433  0.23534  0.51881  1.0000
  H   H307      1.0  0.44995  0.14546  0.49989  1.0000
  H   H308      1.0  0.99814  0.23395  0.76201  1.0000
  H   H309      1.0  0.00816  0.28471  0.87574  1.0000
  H   H310      1.0  0.22648  0.26851  0.88312  1.0000
  H   H311      1.0  0.02398  0.29819  0.69772  1.0000
  H   H312      1.0  0.21947  0.19397  0.69356  1.0000
  H   H313      1.0  0.25498  0.25530  0.92151  1.0000
  H   H314      1.0  0.32413  0.25506  0.79906  1.0000
  H   H315      1.0  0.22687  0.31849  0.85294  1.0000
  H   H316      1.0  0.31460  0.25700  0.88002  1.0000
  H   H317      1.0  0.19134  0.20937  0.64863  1.0000
  C   C197      1.0  0.48123  0.15750  0.55152  1.0000
  H   H318      1.0  0.45081  0.19349  0.71064  1.0000
  H   H319      1.0  0.40998  0.20692  0.66091  1.0000
  Fe  Fe22      1.0  0.11014  0.18254  0.49009  1.0000
  C   C198      1.0  0.01053  0.28477  0.70167  1.0000
  C   C199      1.0  0.99872  0.18719  0.95453  1.0000
  H   H320      1.0  0.34750  0.28873  0.63311  1.0000
  H   H321      1.0  0.16795  0.17564  0.52954  1.0000
  H   H322      1.0  0.26136  0.22379  0.96468  1.0000
  H   H323      1.0  0.43703  0.31606  0.88793  1.0000
  H   H324      1.0  0.17939  0.20986  0.51320  1.0000
  H   H325      1.0  0.24033  0.15982  0.50803  1.0000
  C   C200      1.0  0.05406  0.22132  0.72124  1.0000
  H   H326      1.0  0.46424  0.29714  0.96489  1.0000
  H   H327      1.0  0.17877  0.16623  0.62924  1.0000
  H   H328      1.0  0.16338  0.22940  0.54287  1.0000
  C   C201      1.0  0.18101  0.22179  0.53648  1.0000
  C   C202      1.0  0.19628  0.24193  0.52519  1.0000
  H   H329      1.0  0.19742  0.16757  0.54170  1.0000
  S   S44       1.0  0.46682  0.14553  0.67472  1.0000
  H   H330      1.0  0.26983  0.20372  0.92898  1.0000
  H   H331      1.0  0.45243  0.18360  0.77519  1.0000
  H   H332      1.0  0.46557  0.15470  0.56828  1.0000
  H   H333      1.0  0.21025  0.20340  0.56252  1.0000
  H   H334      1.0  0.01001  0.19544  0.93438  1.0000
  H   H335      1.0  0.07611  0.16447  0.70320  1.0000
  H   H336      1.0  0.14391  0.19900  0.56475  1.0000
  H   H337      1.0  0.15396  0.14517  0.57493  1.0000
  H   H338      1.0  0.08607  0.24662  0.75003  1.0000
  C   C203      1.0  0.14837  0.21334  0.61804  1.0000
  C   C204      1.0  0.17139  0.14479  0.56212  1.0000
  H   H339      1.0  0.19333  0.22244  0.59041  1.0000
  H   H340      1.0  0.15801  0.22946  0.61254  1.0000
  H   H341      1.0  0.08031  0.05787  0.62686  1.0000
  C   C205      1.0  0.19181  0.20887  0.56922  1.0000
  H   H342      1.0  0.44913  0.24297  0.70982  1.0000
  C   C206      1.0  0.27000  0.25009  0.90400  1.0000
  C   C207      1.0  0.19110  0.17726  0.61432  1.0000
  H   H343      1.0  0.46716  0.27313  0.67349  1.0000
  N   N12       1.0  0.17879  0.18791  0.58208  1.0000
  H   H344      1.0  0.18414  0.13613  0.58069  1.0000
  C   C208      1.0  0.47982  0.12286  0.91162  1.0000
  H   H345      1.0  0.11163  0.20443  0.62442  1.0000
  H   H346      1.0  0.01095  0.20722  0.74316  1.0000
  C   C209      1.0  0.12216  0.22003  0.61877  1.0000
  H   H347      1.0  0.21900  0.20126  0.62906  1.0000
  C   C210      1.0  0.23552  0.28526  0.87899  1.0000
  H   H348      1.0  0.06551  0.23005  0.70174  1.0000
  H   H349      1.0  0.14426  0.17835  0.59938  1.0000
  C   C211      1.0  0.15338  0.19398  0.58980  1.0000
  C   C212      1.0  0.45826  0.20417  0.56115  1.0000
  H   H350      1.0  0.20576  0.16515  0.60566  1.0000
  H   H351      1.0  0.07941  0.19017  0.67625  1.0000
  H   H352      1.0  0.44444  0.22348  0.67387  1.0000
  H   H353      1.0  0.44979  0.19998  0.50556  1.0000
  H   H354      1.0  0.38912  0.20248  0.69469  1.0000
  S   S45       1.0  0.28586  0.18038  0.50857  1.0000
  H   H355      1.0  0.47408  0.21461  0.55786  1.0000
  H   H356      1.0  0.20207  0.30343  0.87000  1.0000
  Fe  Fe23      1.0  0.35554  0.28160  0.96609  1.0000
  S   S46       1.0  0.12662  0.21782  0.48591  1.0000
  C   C213      1.0  0.03413  0.22655  0.78025  1.0000
  H   H357      1.0  0.40531  0.29851  0.92339  1.0000
  H   H358      1.0  0.03056  0.23911  0.80250  1.0000
  H   H359      1.0  0.26557  0.32131  0.90182  1.0000
  H   H360      1.0  0.02959  0.12568  0.86870  1.0000
  H   H361      1.0  0.10361  0.24795  0.82982  1.0000
  H   H362      1.0  0.02088  0.16116  0.90351  1.0000
  H   H363      1.0  0.08319  0.09298  0.59263  1.0000
  H   H364      1.0  0.23779  0.29375  0.90541  1.0000
  H   H365      1.0  0.08361  0.19884  0.74111  1.0000
  Fe  Fe24      1.0  0.08999  0.30544  0.94064  1.0000
  H   H366      1.0  0.00467  0.02739  0.68885  1.0000
  H   H367      1.0  0.07925  0.03546  0.71903  1.0000
  H   H368      1.0  0.18691  0.12798  0.51492  1.0000
  C   C214      1.0  0.43768  0.22159  0.56629  1.0000
  C   C215      1.0  0.09777  0.26405  0.81537  1.0000
  C   C216      1.0  0.03200  0.99403  0.75213  1.0000
  H   H369      1.0  0.19485  0.17503  0.68934  1.0000
  H   H370      1.0  0.09444  0.10099  0.53158  1.0000
  H   H371      1.0  0.47799  0.12019  0.53908  1.0000
  H   H372      1.0  0.02171  0.25226  0.49019  1.0000
  H   H373      1.0  0.99865  0.23697  0.51189  1.0000
  H   H374      1.0  0.48670  0.10707  0.96245  1.0000
  H   H375      1.0  0.99952  0.29016  0.72480  1.0000
  C   C217      1.0  0.03402  0.31279  0.83203  1.0000
  H   H376      1.0  0.28930  0.20835  0.96650  1.0000
  H   H377      1.0  0.44943  0.15797  0.74737  1.0000
  C   C218      1.0  0.00810  0.30739  0.96209  1.0000
  H   H378      1.0  0.46029  0.19376  0.58589  1.0000
  H   H379      1.0  0.46187  0.30678  0.53403  1.0000
  H   H380      1.0  0.29166  0.31905  0.87590  1.0000
  H   H381      1.0  0.99901  0.15730  0.86878  1.0000
  H   H382      1.0  0.48741  0.13578  0.89328  1.0000
  H   H383      1.0  0.99857  0.24307  0.86984  1.0000
  H   H384      1.0  0.99410  0.05741  0.59342  1.0000
  H   H385      1.0  0.02321  0.30916  0.94378  1.0000
  C   C219      1.0  0.00582  0.15064  0.89478  1.0000
  C   C220      1.0  0.00850  0.98942  0.68712  1.0000
  S   S47       1.0  0.38027  0.31978  0.66618  1.0000
  H   H386      1.0  0.48833  0.19874  0.48610  1.0000
  S   S48       1.0  0.43913  0.32058  0.71658  1.0000
  C   C221      1.0  0.20508  0.28139  0.97617  1.0000
  C   C222      1.0  0.28431  0.31545  0.90239  1.0000
  H   H387      1.0  0.35579  0.31603  0.84016  1.0000
  C   C223      1.0  0.37348  0.31607  0.85080  1.0000
  H   H388      1.0  0.48539  0.27251  0.49739  1.0000
  H   H389      1.0  0.00090  0.11453  0.87732  1.0000
  H   H390      1.0  0.99324  0.14085  0.94607  1.0000
  H   H391      1.0  0.29768  0.11605  0.48530  1.0000
  C   C224      1.0  0.00399  0.24492  0.48638  1.0000
  H   H392      1.0  0.47840  0.14134  0.48238  1.0000
  C   C225      1.0  0.99924  0.07436  0.60543  1.0000
  H   H393      1.0  0.00240  0.08687  0.58364  1.0000
  H   H394      1.0  0.05016  0.98984  0.59673  1.0000
  H   H395      1.0  0.27068  0.13279  0.47992  1.0000
  H   H396      1.0  0.16506  0.64708  0.27386  1.0000
  H   H397      1.0  0.09575  0.58798  0.28449  1.0000
  H   H398      1.0  0.01952  0.48759  0.30205  1.0000
  C   C226      1.0  0.05655  0.33858  0.09428  1.0000
  H   H399      1.0  0.02374  0.52495  0.26921  1.0000
  S   S49       1.0  0.07955  0.64755  0.17375  1.0000
  C   C227      1.0  0.43214  0.33438  0.98035  1.0000
  H   H400      1.0  0.40905  0.44650  0.21566  1.0000
  Fe  Fe25      1.0  0.02857  0.57428  0.20629  1.0000
  C   C228      1.0  0.10619  0.60164  0.29789  1.0000
  S   S50       1.0  0.02939  0.53461  0.19232  1.0000
  Fe  Fe26      1.0  0.05130  0.62252  0.19186  1.0000
  H   H401      1.0  0.11344  0.35495  0.05233  1.0000
  C   C229      1.0  0.00561  0.33133  0.98160  1.0000
  Fe  Fe27      1.0  0.03325  0.61051  0.26650  1.0000
  S   S51       1.0  0.04179  0.61147  0.32614  1.0000
  C   C230      1.0  0.07126  0.63017  0.37660  1.0000
  S   S52       1.0  0.05950  0.59280  0.22997  1.0000
  S   S53       1.0  0.02270  0.60251  0.16403  1.0000
  Fe  Fe28      1.0  0.02603  0.36044  0.21147  1.0000
  S   S54       1.0  0.05098  0.37900  0.24768  1.0000
  S   S55       1.0  0.03457  0.35890  0.15222  1.0000
  H   H402      1.0  0.13253  0.63730  0.30799  1.0000
  S   S56       1.0  0.01387  0.37207  0.31259  1.0000
  Fe  Fe29      1.0  0.01918  0.39887  0.26870  1.0000
  S   S57       1.0  0.01887  0.43897  0.28061  1.0000
  Fe  Fe30      1.0  0.04361  0.35091  0.28761  1.0000
  H   H403      1.0  0.11716  0.46126  0.21180  1.0000
  H   H404      1.0  0.41502  0.43432  0.13521  1.0000
  C   C231      1.0  0.02660  0.50829  0.21764  1.0000
  C   C232      1.0  0.02666  0.48648  0.19957  1.0000
  C   C233      1.0  0.02409  0.46521  0.21814  1.0000
  C   C234      1.0  0.02166  0.46532  0.25531  1.0000
  C   C235      1.0  0.02149  0.48714  0.27335  1.0000
  C   C236      1.0  0.02392  0.50843  0.25476  1.0000
  H   H405      1.0  0.07308  0.49024  0.23747  1.0000
  H   H406      1.0  0.48890  0.34057  0.03017  1.0000
  H   H407      1.0  0.10736  0.62341  0.25113  1.0000
  C   C237      1.0  0.40543  0.44202  0.15836  1.0000
  C   C238      1.0  0.45572  0.44281  0.23042  1.0000
  H   H408      1.0  0.00197  0.60189  0.43904  1.0000
  C   C239      1.0  0.46534  0.48729  0.19359  1.0000
  H   H409      1.0  0.17463  0.33662  0.07790  1.0000
  C   C240      1.0  0.44207  0.47389  0.18989  1.0000
  H   H410      1.0  0.06292  0.43555  0.23990  1.0000
  H   H411      1.0  0.40176  0.46094  0.15346  1.0000
  H   H412      1.0  0.10339  0.39787  0.34208  1.0000
  H   H413      1.0  0.06617  0.50648  0.29966  1.0000
  H   H414      1.0  0.44242  0.35058  0.98231  1.0000
  H   H415      1.0  0.14210  0.36613  0.06194  1.0000
  H   H416      1.0  0.06297  0.63375  0.47705  1.0000
  S   S58       1.0  0.02076  0.33111  0.24963  1.0000
  H   H417      1.0  0.16752  0.45427  0.21629  1.0000
  C   C241      1.0  0.43310  0.61428  0.35748  1.0000
  C   C242      1.0  0.44905  0.61591  0.32902  1.0000
  H   H418      1.0  0.07163  0.46304  0.28723  1.0000
  H   H419      1.0  0.15074  0.44430  0.17802  1.0000
  H   H420      1.0  0.10068  0.60284  0.32622  1.0000
  H   H421      1.0  0.43172  0.59785  0.37137  1.0000
  H   H422      1.0  0.45975  0.60081  0.32100  1.0000
  H   H423      1.0  0.42943  0.48167  0.20961  1.0000
  C   C243      1.0  0.15828  0.43917  0.20437  1.0000
  H   H424      1.0  0.21270  0.33236  0.07625  1.0000
  C   C244      1.0  0.13263  0.35109  0.05037  1.0000
  H   H425      1.0  0.13080  0.41581  0.21672  1.0000
  H   H426      1.0  0.48303  0.41464  0.27661  1.0000
  H   H427      1.0  0.10120  0.46830  0.30052  1.0000
  H   H428      1.0  0.99992  0.51589  0.11910  1.0000
  C   C245      1.0  0.15446  0.64492  0.24927  1.0000
  H   H429      1.0  0.07406  0.61226  0.38528  1.0000
  C   C246      1.0  0.02686  0.33546  0.00577  1.0000
  S   S59       1.0  0.37779  0.32589  0.07713  1.0000
  Fe  Fe31      1.0  0.99853  0.61988  0.20413  1.0000
  H   H430      1.0  0.37111  0.43749  0.18240  1.0000
  H   H431      1.0  0.08957  0.38161  0.30637  1.0000
  H   H432      1.0  0.46661  0.61264  0.42444  1.0000
  H   H433      1.0  0.06639  0.63717  0.09972  1.0000
  C   C247      1.0  0.46423  0.41670  0.28387  1.0000
  H   H434      1.0  0.05049  0.35414  0.08023  1.0000
  C   C248      1.0  0.10202  0.62524  0.27945  1.0000
  H   H435      1.0  0.47514  0.44227  0.22767  1.0000
  H   H436      1.0  0.45907  0.40054  0.29773  1.0000
  C   C249      1.0  0.17092  0.64601  0.21738  1.0000
  H   H437      1.0  0.41394  0.33857  0.98937  1.0000
  H   H438      1.0  0.09430  0.64452  0.41696  1.0000
  C   C250      1.0  0.08727  0.39654  0.32538  1.0000
  C   C251      1.0  0.08557  0.42095  0.19879  1.0000
  H   H439      1.0  0.43407  0.62722  0.46542  1.0000
  H   H440      1.0  0.99511  0.63714  0.11207  1.0000
  C   C252      1.0  0.41478  0.34320  0.11621  1.0000
  C   C253      1.0  0.07953  0.44020  0.22690  1.0000
  C   C254      1.0  0.06487  0.41721  0.17327  1.0000
  H   H441      1.0  0.45081  0.40442  0.23354  1.0000
  H   H442      1.0  0.44362  0.32239  0.03137  1.0000
  C   C255      1.0  0.08952  0.46612  0.27674  1.0000
  C   C256      1.0  0.13896  0.43125  0.22915  1.0000
  C   C257      1.0  0.05642  0.63486  0.34720  1.0000
  H   H443      1.0  0.44458  0.40194  0.16266  1.0000
  C   C258      1.0  0.41955  0.43832  0.19359  1.0000
  H   H444      1.0  0.40627  0.36017  0.11202  1.0000
  C   C259      1.0  0.43567  0.34152  0.13672  1.0000
  H   H445      1.0  0.09008  0.40392  0.21151  1.0000
  H   H446      1.0  0.10042  0.42631  0.18210  1.0000
  C   C260      1.0  0.08214  0.41942  0.30542  1.0000
  S   S60       1.0  0.39870  0.63091  0.40338  1.0000
  N   N13       1.0  0.44411  0.44758  0.19451  1.0000
  N   N14       1.0  0.09814  0.44532  0.25459  1.0000
  H   H447      1.0  0.46202  0.43182  0.30258  1.0000
  H   H448      1.0  0.10646  0.40849  0.26425  1.0000
  C   C261      1.0  0.46079  0.51383  0.19274  1.0000
  H   H449      1.0  0.02511  0.35304  0.01864  1.0000
  C   C262      1.0  0.12092  0.45165  0.23710  1.0000
  H   H450      1.0  0.04904  0.41208  0.18802  1.0000
  H   H451      1.0  0.06058  0.43346  0.15812  1.0000
  H   H452      1.0  0.06940  0.40292  0.15393  1.0000
  H   H453      1.0  0.48466  0.62750  0.08986  1.0000
  H   H454      1.0  0.48916  0.64847  0.02190  1.0000
  H   H455      1.0  0.02508  0.64413  0.10423  1.0000
  H   H456      1.0  0.44954  0.51964  0.21541  1.0000
  H   H457      1.0  0.14753  0.42531  0.25440  1.0000
  H   H458      1.0  0.08286  0.62945  0.27979  1.0000
  H   H459      1.0  0.07508  0.45616  0.21121  1.0000
  H   H460      1.0  0.07889  0.52675  0.26939  1.0000
  H   H461      1.0  0.41969  0.41921  0.19875  1.0000
  H   H462      1.0  0.07232  0.39278  0.34305  1.0000
  H   H463      1.0  0.17130  0.42452  0.20011  1.0000
  H   H464      1.0  0.44312  0.35708  0.14821  1.0000
  C   C263      1.0  0.44895  0.42034  0.25049  1.0000
  H   H465      1.0  0.43042  0.42198  0.25943  1.0000
  H   H466      1.0  0.37185  0.43333  0.13466  1.0000
  C   C264      1.0  0.45896  0.43759  0.16454  1.0000
  H   H467      1.0  0.99509  0.63424  0.36556  1.0000
  C   C265      1.0  0.00747  0.65175  0.11055  1.0000
  H   H468      1.0  0.47613  0.33342  0.45967  1.0000
  H   H469      1.0  0.07998  0.43354  0.32585  1.0000
  H   H470      1.0  0.05166  0.61694  0.44044  1.0000
  C   C266      1.0  0.41870  0.63366  0.36769  1.0000
  H   H471      1.0  0.02859  0.48602  0.17087  1.0000
  H   H472      1.0  0.38429  0.41095  0.16330  1.0000
  H   H473      1.0  0.06525  0.41775  0.29112  1.0000
  H   H474      1.0  0.02397  0.44874  0.20364  1.0000
  C   C267      1.0  0.13892  0.32860  0.07070  1.0000
  C   C268      1.0  0.05144  0.33632  0.13070  1.0000
  H   H475      1.0  0.11795  0.42804  0.29669  1.0000
  C   C269      1.0  0.10231  0.42486  0.27946  1.0000
  H   H476      1.0  0.09712  0.51237  0.30274  1.0000
  C   C270      1.0  0.08751  0.49017  0.25749  1.0000
  C   C271      1.0  0.47437  0.40262  0.12857  1.0000
  C   C272      1.0  0.46173  0.41055  0.16259  1.0000
  H   H477      1.0  0.47661  0.38322  0.12839  1.0000
  C   C273      1.0  0.08210  0.51009  0.28405  1.0000
  H   H478      1.0  0.13075  0.46403  0.25443  1.0000
  H   H479      1.0  0.10389  0.49452  0.24364  1.0000
  H   H480      1.0  0.01833  0.62328  0.41808  1.0000
  H   H481      1.0  0.45170  0.45743  0.24962  1.0000
  H   H482      1.0  0.12502  0.59609  0.29666  1.0000
  H   H483      1.0  0.48166  0.63336  0.37673  1.0000
  H   H484      1.0  0.16106  0.64321  0.19202  1.0000
  S   S61       1.0  0.34833  0.65356  0.46868  1.0000
  H   H485      1.0  0.98987  0.33250  0.99869  1.0000
  H   H486      1.0  0.04334  0.33472  0.99012  1.0000
  S   S62       1.0  0.47063  0.64046  0.27491  1.0000
  H   H487      1.0  0.08736  0.59873  0.46905  1.0000
  S   S63       1.0  0.02683  0.64096  0.23022  1.0000
  H   H488      1.0  0.45222  0.51912  0.16719  1.0000
  H   H489      1.0  0.06236  0.58009  0.46799  1.0000
  C   C274      1.0  0.38175  0.43021  0.15994  1.0000
  C   C275      1.0  0.45076  0.63699  0.31059  1.0000
  H   H490      1.0  0.47732  0.48267  0.17125  1.0000
  H   H491      1.0  0.10574  0.64888  0.32421  1.0000
  H   H492      1.0  0.04561  0.32781  0.37522  1.0000
  H   H493      1.0  0.25116  0.32459  0.10414  1.0000
  C   C276      1.0  0.05365  0.61754  0.46965  1.0000
  H   H494      1.0  0.14739  0.62702  0.24955  1.0000
  C   C277      1.0  0.07371  0.65443  0.10072  1.0000
  H   H495      1.0  0.47819  0.34487  0.09324  1.0000
  S   S64       1.0  0.07496  0.33069  0.31179  1.0000
  H   H496      1.0  0.13491  0.33234  0.09915  1.0000
  H   H497      1.0  0.07293  0.32272  0.04768  1.0000
  C   C278      1.0  0.00382  0.62125  0.43719  1.0000
  H   H498      1.0  0.48267  0.60860  0.46514  1.0000
  S   S65       1.0  0.00250  0.59078  0.24449  1.0000
  C   C279      1.0  0.11539  0.64490  0.29905  1.0000
  H   H499      1.0  0.13717  0.34918  0.02171  1.0000
  H   H500      1.0  0.48911  0.59235  0.36666  1.0000
  C   C280      1.0  0.47997  0.62070  0.44215  1.0000
  C   C281      1.0  0.46763  0.64350  0.45601  1.0000
  H   H501      1.0  0.45236  0.44408  0.13829  1.0000
  H   H502      1.0  0.43489  0.47840  0.16305  1.0000
  C   C282      1.0  0.40466  0.32305  0.10142  1.0000
  H   H503      1.0  0.47461  0.48330  0.21903  1.0000
  N   N15       1.0  0.00967  0.63146  0.47344  1.0000
  H   H504      1.0  0.47259  0.40417  0.18540  1.0000
  H   H505      1.0  0.47774  0.52287  0.19522  1.0000
  Fe  Fe32      1.0  0.99100  0.35340  0.27262  1.0000
  H   H506      1.0  0.18487  0.63206  0.21965  1.0000
  S   S66       1.0  0.99420  0.38137  0.23061  1.0000
  H   H507      1.0  0.47967  0.57858  0.40694  1.0000
  H   H508      1.0  0.47714  0.32271  0.98127  1.0000
  H   H509      1.0  0.47710  0.44412  0.16656  1.0000
  H   H510      1.0  0.46401  0.40789  0.10455  1.0000
  C   C283      1.0  0.08277  0.64841  0.39454  1.0000
  H   H511      1.0  0.47955  0.65463  0.47175  1.0000
  H   H512      1.0  0.46029  0.65344  0.43305  1.0000
  C   C284      1.0  0.42045  0.65466  0.34923  1.0000
  H   H513      1.0  0.02804  0.32204  0.02706  1.0000
  C   C285      1.0  0.06945  0.59641  0.47967  1.0000
  C   C286      1.0  0.29680  0.33088  0.92969  1.0000
  C   C287      1.0  0.14493  0.62238  0.58018  1.0000
  H   H514      1.0  0.17073  0.61408  0.53806  1.0000
  S   S67       1.0  0.08683  0.63188  0.55234  1.0000
  H   H515      1.0  0.31598  0.32674  0.92981  1.0000
  C   C288      1.0  0.38225  0.55838  0.64178  1.0000
  C   C289      1.0  0.42741  0.47483  0.61531  1.0000
  Fe  Fe33      1.0  0.43601  0.34752  0.76014  1.0000
  S   S68       1.0  0.40568  0.36661  0.73386  1.0000
  H   H516      1.0  0.14810  0.58451  0.50606  1.0000
  Fe  Fe34      1.0  0.46392  0.34437  0.68919  1.0000
  S   S69       1.0  0.43510  0.36405  0.65913  1.0000
  H   H517      1.0  0.13845  0.60169  0.66663  1.0000
  Fe  Fe35      1.0  0.43305  0.38854  0.70764  1.0000
  S   S70       1.0  0.42407  0.42865  0.70462  1.0000
  Fe  Fe36      1.0  0.41063  0.34086  0.68826  1.0000
  C   C290      1.0  0.13911  0.59645  0.52551  1.0000
  S   S71       1.0  0.46359  0.37005  0.73590  1.0000
  C   C291      1.0  0.44695  0.63811  0.47996  1.0000
  Fe  Fe37      1.0  0.44259  0.61017  0.71071  1.0000
  S   S72       1.0  0.41436  0.58869  0.73441  1.0000
  S   S73       1.0  0.44523  0.61706  0.65096  1.0000
  Fe  Fe38      1.0  0.46754  0.61682  0.78433  1.0000
  S   S74       1.0  0.44115  0.59494  0.81188  1.0000
  H   H518      1.0  0.17259  0.56095  0.64680  1.0000
  Fe  Fe39      1.0  0.44393  0.56993  0.76420  1.0000
  S   S75       1.0  0.45201  0.52986  0.76859  1.0000
  Fe  Fe40      1.0  0.41450  0.61559  0.77943  1.0000
  S   S76       1.0  0.38283  0.63671  0.80027  1.0000
  S   S77       1.0  0.47244  0.59088  0.73891  1.0000
  S   S78       1.0  0.44062  0.63790  0.75314  1.0000
  H   H519      1.0  0.07075  0.59445  0.50906  1.0000
  C   C292      1.0  0.44402  0.50213  0.74956  1.0000
  C   C293      1.0  0.42297  0.49897  0.73073  1.0000
  C   C294      1.0  0.41729  0.47650  0.71725  1.0000
  C   C295      1.0  0.43252  0.45674  0.72209  1.0000
  C   C296      1.0  0.45375  0.46006  0.74032  1.0000
  C   C297      1.0  0.45927  0.48242  0.75424  1.0000
  H   H520      1.0  0.41089  0.51376  0.72706  1.0000
  H   H521      1.0  0.40088  0.47440  0.70304  1.0000
  H   H522      1.0  0.46617  0.44549  0.74328  1.0000
  H   H523      1.0  0.99776  0.32254  0.89975  1.0000
  C   C298      1.0  0.41076  0.65075  0.56960  1.0000
  C   C299      1.0  0.16862  0.60917  0.63323  1.0000
  S   S79       1.0  0.99815  0.65017  0.65315  1.0000
  C   C300      1.0  0.45812  0.33490  0.57199  1.0000
  C   C301      1.0  0.01956  0.33211  0.82224  1.0000
  H   H524      1.0  0.37993  0.40384  0.85758  1.0000
  C   C302      1.0  0.42738  0.63765  0.58994  1.0000
  H   H525      1.0  0.46281  0.61923  0.92617  1.0000
  C   C303      1.0  0.42369  0.63344  0.62638  1.0000
  H   H526      1.0  0.41874  0.45226  0.84025  1.0000
  H   H527      1.0  0.16476  0.58959  0.56646  1.0000
  C   C304      1.0  0.00566  0.55082  0.76455  1.0000
  H   H528      1.0  0.44552  0.40052  0.85593  1.0000
  H   H529      1.0  0.41491  0.57610  0.65230  1.0000
  H   H530      1.0  0.99273  0.56323  0.90213  1.0000
  C   C305      1.0  0.06206  0.63700  0.58010  1.0000
  C   C306      1.0  0.04957  0.61791  0.59273  1.0000
  C   C307      1.0  0.02986  0.62153  0.61495  1.0000
  C   C308      1.0  0.02256  0.64431  0.62487  1.0000
  H   H531      1.0  0.40039  0.51486  0.61885  1.0000
  H   H532      1.0  0.03411  0.62365  0.51687  1.0000
  H   H533      1.0  0.05516  0.60024  0.58537  1.0000
  H   H534      1.0  0.02042  0.60671  0.62456  1.0000
  H   H535      1.0  0.43906  0.46241  0.60018  1.0000
  C   C309      1.0  0.42192  0.57697  0.57905  1.0000
  H   H536      1.0  0.12869  0.61403  0.58893  1.0000
  H   H537      1.0  0.37501  0.54062  0.64393  1.0000
  C   C310      1.0  0.40311  0.64232  0.64223  1.0000
  H   H538      1.0  0.37673  0.44921  0.80801  1.0000
  H   H539      1.0  0.14752  0.55978  0.67559  1.0000
  S   S80       1.0  0.43773  0.33783  0.81928  1.0000
  H   H540      1.0  0.39751  0.36410  0.93052  1.0000
  H   H541      1.0  0.44863  0.54899  0.69349  1.0000
  C   C311      1.0  0.37738  0.43120  0.79653  1.0000
  H   H542      1.0  0.37530  0.59271  0.66641  1.0000
  H   H543      1.0  0.45312  0.56652  0.63446  1.0000
  H   H544      1.0  0.37653  0.44412  0.86592  1.0000
  H   H545      1.0  0.44977  0.41680  0.77902  1.0000
  H   H546      1.0  0.39993  0.63909  0.67016  1.0000
  C   C312      1.0  0.43494  0.49997  0.60936  1.0000
  H   H547      1.0  0.03570  0.36988  0.88842  1.0000
  H   H548      1.0  0.43139  0.32851  0.95208  1.0000
  H   H549      1.0  0.41366  0.43414  0.78501  1.0000
  H   H550      1.0  0.39638  0.48213  0.87483  1.0000
  C   C313      1.0  0.42010  0.55042  0.58703  1.0000
  H   H551      1.0  0.37095  0.56808  0.69558  1.0000
  H   H552      1.0  0.45423  0.33478  0.51508  1.0000
  H   H553      1.0  0.13878  0.63806  0.56492  1.0000
  H   H554      1.0  0.11361  0.62688  0.64198  1.0000
  H   H555      1.0  0.41796  0.51288  0.65769  1.0000
  C   C314      1.0  0.36885  0.57454  0.66782  1.0000
  H   H556      1.0  0.41077  0.55085  0.67809  1.0000
  H   H557      1.0  0.01675  0.53538  0.77262  1.0000
  H   H558      1.0  0.41379  0.65398  0.54170  1.0000
  C   C315      1.0  0.40894  0.55771  0.65047  1.0000
  H   H559      1.0  0.43572  0.38688  0.81589  1.0000
  H   H560      1.0  0.99765  0.54726  0.73796  1.0000
  H   H561      1.0  0.42869  0.57227  0.52208  1.0000
  H   H562      1.0  0.38070  0.47354  0.91390  1.0000
  N   N16       1.0  0.42427  0.54337  0.62535  1.0000
  C   C316      1.0  0.41625  0.58205  0.53985  1.0000
  H   H563      1.0  0.43458  0.50307  0.58019  1.0000
  H   H564      1.0  0.41224  0.46995  0.91282  1.0000
  H   H565      1.0  0.42078  0.64748  0.85023  1.0000
  H   H566      1.0  0.45333  0.50104  0.61905  1.0000
  H   H567      1.0  0.47569  0.48453  0.76845  1.0000
  H   H568      1.0  0.29402  0.34963  0.92267  1.0000
  H   H569      1.0  0.46228  0.35369  0.57539  1.0000
  H   H570      1.0  0.12507  0.58672  0.53875  1.0000
  C   C317      1.0  0.16134  0.57132  0.66562  1.0000
  H   H571      1.0  0.48547  0.41274  0.84086  1.0000
  C   C318      1.0  0.44962  0.54744  0.63486  1.0000
  H   H572      1.0  0.46152  0.53948  0.61440  1.0000
  H   H573      1.0  0.40381  0.40508  0.78091  1.0000
  H   H574      1.0  0.00477  0.34568  0.96176  1.0000
  C   C319      1.0  0.38929  0.37331  0.90738  1.0000
  N   N17       1.0  0.15967  0.62988  0.61175  1.0000
  H   H575      1.0  0.02477  0.59871  0.49254  1.0000
  S   S81       1.0  0.06875  0.33689  0.91985  1.0000
  H   H576      1.0  0.43994  0.58295  0.58457  1.0000
  H   H577      1.0  0.34986  0.57500  0.66084  1.0000
  H   H578      1.0  0.00925  0.36772  0.83527  1.0000
  H   H579      1.0  0.01702  0.56618  0.76214  1.0000
  H   H580      1.0  0.37984  0.44517  0.74276  1.0000
  H   H581      1.0  0.42201  0.37236  0.87951  1.0000
  C   C320      1.0  0.45784  0.53880  0.67220  1.0000
  H   H582      1.0  0.35040  0.44020  0.75722  1.0000
  H   H583      1.0  0.44322  0.63080  0.57743  1.0000
  H   H584      1.0  0.45690  0.64790  0.90781  1.0000
  H   H585      1.0  0.47296  0.64969  0.96971  1.0000
  C   C321      1.0  0.39590  0.46900  0.89653  1.0000
  H   H586      1.0  0.13092  0.61140  0.51067  1.0000
  H   H587      1.0  0.48119  0.39063  0.80663  1.0000
  H   H588      1.0  0.48861  0.56064  0.67407  1.0000
  H   H589      1.0  0.45455  0.51995  0.67600  1.0000
  S   S82       1.0  0.00185  0.32973  0.78342  1.0000
  H   H590      1.0  0.17215  0.57705  0.68875  1.0000
  H   H591      1.0  0.37587  0.38620  0.91746  1.0000
  H   H592      1.0  0.41772  0.60110  0.53479  1.0000
  H   H593      1.0  0.42885  0.47029  0.64401  1.0000
  H   H594      1.0  0.36930  0.41564  0.74448  1.0000
  H   H595      1.0  0.40265  0.54464  0.57741  1.0000
  H   H596      1.0  0.45308  0.62876  0.50437  1.0000
  H   H597      1.0  0.39506  0.38205  0.83240  1.0000
  C   C322      1.0  0.47954  0.40969  0.81293  1.0000
  C   C323      1.0  0.04977  0.33455  0.88242  1.0000
  H   H598      1.0  0.28980  0.32818  0.95687  1.0000
  H   H599      1.0  0.39800  0.57711  0.53321  1.0000
  H   H600      1.0  0.17821  0.61526  0.65741  1.0000
  C   C324      1.0  0.18061  0.64224  0.59731  1.0000
  H   H601      1.0  0.41608  0.39900  0.90403  1.0000
  H   H602      1.0  0.13891  0.58558  0.62476  1.0000
  C   C325      1.0  0.02991  0.61730  0.48948  1.0000
  H   H603      1.0  0.18191  0.59865  0.61786  1.0000
  H   H604      1.0  0.45325  0.43750  0.81531  1.0000
  H   H605      1.0  0.42997  0.43547  0.87621  1.0000
  H   H606      1.0  0.39183  0.43215  0.90363  1.0000
  H   H607      1.0  0.20697  0.63809  0.64032  1.0000
  H   H608      1.0  0.15292  0.64673  0.66317  1.0000
  C   C326      1.0  0.48517  0.64662  0.94723  1.0000
  C   C327      1.0  0.36877  0.43313  0.75787  1.0000
  C   C328      1.0  0.39132  0.32627  0.83089  1.0000
  C   C329      1.0  0.46558  0.32569  0.53526  1.0000
  C   C330      1.0  0.15688  0.60521  0.55303  1.0000
  C   C331      1.0  0.14986  0.59247  0.64686  1.0000
  H   H609      1.0  0.40905  0.47251  0.60606  1.0000
  H   H610      1.0  0.40949  0.58778  0.59534  1.0000
  H   H611      1.0  0.38056  0.36011  0.89031  1.0000
  C   C332      1.0  0.03515  0.35383  0.87283  1.0000
  H   H612      1.0  0.37852  0.56502  0.61455  1.0000
  C   C333      1.0  0.41845  0.51787  0.62908  1.0000
  H   H613      1.0  0.19162  0.63021  0.58045  1.0000
  H   H614      1.0  0.00252  0.62119  0.55079  1.0000
  H   H615      1.0  0.38727  0.33394  0.80517  1.0000
  C   C334      1.0  0.47104  0.63547  0.91696  1.0000
  C   C335      1.0  0.41441  0.32603  0.84391  1.0000
  C   C336      1.0  0.02008  0.35263  0.84284  1.0000
  H   H616      1.0  0.43303  0.54120  0.56935  1.0000
  H   H617      1.0  0.36489  0.42014  0.81060  1.0000
  H   H618      1.0  0.99636  0.53602  0.92590  1.0000
  N   N18       1.0  0.41266  0.41511  0.83486  1.0000
  C   C337      1.0  0.39781  0.39679  0.85167  1.0000
  C   C338      1.0  0.40283  0.42095  0.79832  1.0000
  C   C339      1.0  0.43692  0.40418  0.82970  1.0000
  C   C340      1.0  0.41472  0.43709  0.85747  1.0000
  C   C341      1.0  0.39330  0.44435  0.88093  1.0000
  C   C342      1.0  0.40808  0.38567  0.88637  1.0000
  C   C343      1.0  0.45418  0.41863  0.80781  1.0000
  H   H619      1.0  0.99051  0.52855  0.86161  1.0000
  C   C344      1.0  0.11893  0.64501  0.63677  1.0000
  H   H620      1.0  0.43889  0.33319  0.57505  1.0000
  C   C345      1.0  0.14601  0.64721  0.63528  1.0000
  C   C346      1.0  0.48417  0.54198  0.67753  1.0000
  H   H621      1.0  0.99548  0.56009  0.81788  1.0000
  H   H622      1.0  0.11105  0.65056  0.61095  1.0000
  C   C347      1.0  0.19762  0.65247  0.62572  1.0000
  H   H623      1.0  0.48245  0.63103  0.89387  1.0000
  H   H624      1.0  0.46715  0.32457  0.59328  1.0000
  C   C348      1.0  0.99183  0.63504  0.53706  1.0000
  H   H625      1.0  0.00068  0.65198  0.54044  1.0000
  S   S83       1.0  0.48907  0.64238  0.81733  1.0000
  H   H626      1.0  0.43787  0.65477  0.48817  1.0000
  Fe  Fe41      1.0  0.46683  0.84508  0.27770  1.0000
  S   S84       1.0  0.43729  0.86450  0.30615  1.0000
  H   H627      1.0  0.40670  0.78691  0.24364  1.0000
  Fe  Fe42      1.0  0.44080  0.84898  0.20448  1.0000
  S   S85       1.0  0.40977  0.86778  0.22903  1.0000
  S   S86       1.0  0.44344  0.84088  0.14467  1.0000
  Fe  Fe43      1.0  0.43650  0.88933  0.25864  1.0000
  S   S87       1.0  0.42844  0.92946  0.26355  1.0000
  Fe  Fe44      1.0  0.41353  0.84156  0.27384  1.0000
  S   S88       1.0  0.38303  0.81987  0.29323  1.0000
  S   S89       1.0  0.46777  0.87114  0.23238  1.0000
  S   S90       1.0  0.44277  0.82155  0.24681  1.0000
  H   H628      1.0  0.33006  0.78932  0.18880  1.0000
  Fe  Fe45      1.0  0.32711  0.68365  0.44472  1.0000
  H   H629      1.0  0.46907  0.76223  0.36524  1.0000
  Fe  Fe46      1.0  0.37087  0.71389  0.43697  1.0000
  S   S91       1.0  0.38959  0.74761  0.42285  1.0000
  S   S92       1.0  0.35332  0.68842  0.39999  1.0000
  C   C349      1.0  0.25212  0.76708  0.45792  1.0000
  H   H630      1.0  0.41719  0.95420  0.13307  1.0000
  Fe  Fe47      1.0  0.10555  0.73876  0.01295  1.0000
  S   S93       1.0  0.11676  0.76891  0.04796  1.0000
  S   S94       1.0  0.09466  0.70178  0.02765  1.0000
  Fe  Fe48      1.0  0.08837  0.78980  0.01869  1.0000
  S   S95       1.0  0.05560  0.81121  0.03485  1.0000
  Fe  Fe49      1.0  0.14083  0.77786  0.00174  1.0000
  H   H631      1.0  0.36399  0.70994  0.29815  1.0000
  C   C350      1.0  0.48068  0.70161  0.23715  1.0000
  H   H632      1.0  0.01272  0.68305  0.08098  1.0000
  Fe  Fe50      1.0  0.35983  0.78215  0.99629  1.0000
  S   S96       1.0  0.36274  0.79113  0.05565  1.0000
  H   H633      1.0  0.27975  0.73231  0.07488  1.0000
  H   H634      1.0  0.41553  0.71272  0.32308  1.0000
  H   H635      1.0  0.00039  0.65935  0.05570  1.0000
  H   H636      1.0  0.43763  0.67251  0.30673  1.0000
  H   H637      1.0  0.28786  0.70230  0.02792  1.0000
  H   H638      1.0  0.19907  0.74652  0.98106  1.0000
  H   H639      1.0  0.10345  0.71492  0.10276  1.0000
  C   C351      1.0  0.08836  0.68847  0.06917  1.0000
  C   C352      1.0  0.13415  0.66361  0.24622  1.0000
  C   C353      1.0  0.39420  0.90876  0.08502  1.0000
  H   H640      1.0  0.45128  0.76719  0.27079  1.0000
  C   C354      1.0  0.15651  0.69928  0.35035  1.0000
  H   H641      1.0  0.41356  0.78927  0.17880  1.0000
  H   H642      1.0  0.37219  0.95543  0.11115  1.0000
  C   C355      1.0  0.04408  0.81825  0.07744  1.0000
  C   C356      1.0  0.05807  0.81802  0.10825  1.0000
  C   C357      1.0  0.04843  0.82542  0.14113  1.0000
  C   C358      1.0  0.02465  0.83257  0.14369  1.0000
  C   C359      1.0  0.01051  0.83221  0.11301  1.0000
  C   C360      1.0  0.02026  0.82527  0.08000  1.0000
  H   H643      1.0  0.07645  0.81283  0.10656  1.0000
  H   H644      1.0  0.05951  0.82574  0.16473  1.0000
  H   H645      1.0  0.00905  0.72203  0.14753  1.0000
  H   H646      1.0  0.00930  0.82540  0.05629  1.0000
  C   C361      1.0  0.42051  0.82836  0.11919  1.0000
  C   C362      1.0  0.42481  0.82062  0.08398  1.0000
  C   C363      1.0  0.40714  0.80978  0.06362  1.0000
  C   C364      1.0  0.38506  0.80645  0.07848  1.0000
  C   C365      1.0  0.38059  0.81489  0.11321  1.0000
  C   C366      1.0  0.39811  0.82604  0.13329  1.0000
  H   H647      1.0  0.44202  0.82262  0.07268  1.0000
  H   H648      1.0  0.41075  0.80345  0.03688  1.0000
  H   H649      1.0  0.36353  0.81260  0.12484  1.0000
  H   H650      1.0  0.39444  0.83242  0.16000  1.0000
  C   C367      1.0  0.43594  0.95622  0.24189  1.0000
  C   C368      1.0  0.05297  0.65804  0.33609  1.0000
  H   H651      1.0  0.06863  0.72194  0.21699  1.0000
  C   C369      1.0  0.45573  0.95792  0.22029  1.0000
  H   H652      1.0  0.06155  0.69423  0.34545  1.0000
  H   H653      1.0  0.46727  0.94272  0.21657  1.0000
  C   C370      1.0  0.38514  0.79968  0.32910  1.0000
  C   C371      1.0  0.36719  0.78362  0.33397  1.0000
  C   C372      1.0  0.36830  0.76740  0.36224  1.0000
  C   C373      1.0  0.38734  0.76713  0.38609  1.0000
  C   C374      1.0  0.40513  0.78336  0.38140  1.0000
  C   C375      1.0  0.40410  0.79945  0.35304  1.0000
  H   H654      1.0  0.35233  0.78378  0.31580  1.0000
  H   H655      1.0  0.35429  0.75534  0.36584  1.0000
  H   H656      1.0  0.41979  0.78360  0.39988  1.0000
  H   H657      1.0  0.41780  0.81197  0.34996  1.0000
  C   C376      1.0  0.99969  0.66898  0.08151  1.0000
  C   C377      1.0  0.30872  0.77103  0.10539  1.0000
  H   H658      1.0  0.35690  0.92736  0.20278  1.0000
  C   C378      1.0  0.46542  0.72415  0.23878  1.0000
  H   H659      1.0  0.22084  0.76605  0.11023  1.0000
  C   C379      1.0  0.46082  0.97940  0.20377  1.0000
  C   C380      1.0  0.09138  0.68587  0.13397  1.0000
  H   H660      1.0  0.26228  0.79492  0.10790  1.0000
  C   C381      1.0  0.45180  0.72236  0.41484  1.0000
  H   H661      1.0  0.17389  0.69543  0.36300  1.0000
  C   C382      1.0  0.01492  0.65731  0.47235  1.0000
  H   H662      1.0  0.40442  0.91264  0.06063  1.0000
  C   C383      1.0  0.40116  0.77222  0.22640  1.0000
  H   H663      1.0  0.37390  0.85427  0.05618  1.0000
  N   N19       1.0  0.40557  0.91952  0.11768  1.0000
  H   H664      1.0  0.47091  0.71991  0.41002  1.0000
  C   C384      1.0  0.42890  0.90674  0.12340  1.0000
  H   H665      1.0  0.99217  0.83758  0.11467  1.0000
  C   C385      1.0  0.38962  0.91655  0.14932  1.0000
  C   C386      1.0  0.39065  0.93541  0.17939  1.0000
  H   H666      1.0  0.35684  0.88126  0.05968  1.0000
  H   H667      1.0  0.23866  0.68304  0.40971  1.0000
  C   C387      1.0  0.44467  0.91564  0.15421  1.0000
  H   H668      1.0  0.47618  0.98032  0.18716  1.0000
  C   C388      1.0  0.37552  0.92904  0.21112  1.0000
  H   H669      1.0  0.06419  0.69110  0.21040  1.0000
  C   C389      1.0  0.44684  0.74998  0.32166  1.0000
  H   H670      1.0  0.43210  0.70687  0.23705  1.0000
  C   C390      1.0  0.01453  0.73175  0.17202  1.0000
  H   H671      1.0  0.42630  0.88796  0.12944  1.0000
  H   H672      1.0  0.43927  0.90688  0.09829  1.0000
  H   H673      1.0  0.08197  0.67667  0.28781  1.0000
  H   H674      1.0  0.05544  0.70524  0.25184  1.0000
  H   H675      1.0  0.48419  0.69473  0.26441  1.0000
  H   H676      1.0  0.39314  0.89912  0.16184  1.0000
  H   H677      1.0  0.04517  0.65833  0.43649  1.0000
  H   H678      1.0  0.40877  0.93759  0.18907  1.0000
  C   C391      1.0  0.37834  0.70834  0.31832  1.0000
  H   H679      1.0  0.47475  0.67351  0.35177  1.0000
  H   H680      1.0  0.29534  0.71296  0.36948  1.0000
  H   H681      1.0  0.09601  0.86857  0.98496  1.0000
  H   H682      1.0  0.44677  0.93483  0.15359  1.0000
  H   H683      1.0  0.43720  0.91072  0.18028  1.0000
  C   C392      1.0  0.43625  0.65622  0.32072  1.0000
  H   H684      1.0  0.99623  0.71120  0.04793  1.0000
  H   H685      1.0  0.47512  0.73711  0.25494  1.0000
  H   H686      1.0  0.12999  0.70240  0.28893  1.0000
  H   H687      1.0  0.16574  0.68062  0.30253  1.0000
  N   N20       1.0  0.11842  0.66711  0.27825  1.0000
  C   C393      1.0  0.48411  0.73870  0.47547  1.0000
  H   H688      1.0  0.09674  0.71400  0.26536  1.0000
  H   H689      1.0  0.24658  0.75438  0.05873  1.0000
  C   C394      1.0  0.07751  0.66663  0.06882  1.0000
  C   C395      1.0  0.39122  0.88179  0.08583  1.0000
  H   H690      1.0  0.44801  0.81060  0.44741  1.0000
  H   H691      1.0  0.30024  0.72405  0.99977  1.0000
  C   C396      1.0  0.43692  0.75871  0.28540  1.0000
  H   H692      1.0  0.07265  0.65875  0.04354  1.0000
  H   H693      1.0  0.43620  0.75945  0.21492  1.0000
  C   C397      1.0  0.99710  0.72484  0.20153  1.0000
  C   C398      1.0  0.23897  0.68367  0.43857  1.0000
  H   H694      1.0  0.39384  0.74857  0.29290  1.0000
  C   C399      1.0  0.44637  0.72142  0.45526  1.0000
  H   H695      1.0  0.37779  0.69059  0.33003  1.0000
  H   H696      1.0  0.21969  0.81816  0.98623  1.0000
  H   H697      1.0  0.47191  0.68791  0.22103  1.0000
  H   H698      1.0  0.37088  0.91632  0.14062  1.0000
  H   H699      1.0  0.11421  0.68979  0.32445  1.0000
  C   C400      1.0  0.32787  0.77678  0.16622  1.0000
  N   N21       1.0  0.01656  0.75765  0.16446  1.0000
  H   H700      1.0  0.12371  0.65828  0.22227  1.0000
  C   C401      1.0  0.03580  0.76825  0.18673  1.0000
  C   C402      1.0  0.02300  0.76053  0.12570  1.0000
  H   H701      1.0  0.39125  0.76790  0.17034  1.0000
  C   C403      1.0  0.37485  0.87368  0.05591  1.0000
  C   C404      1.0  0.44881  0.76340  0.46620  1.0000
  C   C405      1.0  0.04730  0.74990  0.11448  1.0000
  C   C406      1.0  0.03290  0.76785  0.22775  1.0000
  C   C407      1.0  0.05223  0.78155  0.24632  1.0000
  N   N22       1.0  0.45774  0.73959  0.47871  1.0000
  C   C408      1.0  0.09323  0.69954  0.24622  1.0000
  C   C409      1.0  0.04899  0.74708  0.07399  1.0000
  H   H702      1.0  0.40602  0.97557  0.26315  1.0000
  C   C410      1.0  0.46936  0.90446  0.15204  1.0000
  H   H703      1.0  0.05298  0.75913  0.18155  1.0000
  H   H704      1.0  0.03793  0.78684  0.17891  1.0000
  H   H705      1.0  0.02272  0.77948  0.11856  1.0000
  H   H706      1.0  0.00969  0.75246  0.10801  1.0000
  H   H707      1.0  0.28803  0.72725  0.46999  1.0000
  H   H708      1.0  0.03208  0.72387  0.17897  1.0000
  H   H709      1.0  0.45972  0.95982  0.34105  1.0000
  H   H710      1.0  0.45482  0.76692  0.43869  1.0000
  H   H711      1.0  0.42700  0.72309  0.45819  1.0000
  H   H712      1.0  0.38202  0.91235  0.22316  1.0000
  H   H713      1.0  0.05084  0.73240  0.12643  1.0000
  H   H714      1.0  0.06142  0.76176  0.12317  1.0000
  C   C411      1.0  0.15134  0.68047  0.32223  1.0000
  H   H715      1.0  0.48864  0.65882  0.08599  1.0000
  H   H716      1.0  0.05113  0.80029  0.23833  1.0000
  C   C412      1.0  0.26081  0.68360  0.45665  1.0000
  H   H717      1.0  0.06984  0.77401  0.23946  1.0000
  C   C413      1.0  0.42148  0.97653  0.24675  1.0000
  H   H718      1.0  0.08695  0.66255  0.24624  1.0000
  H   H719      1.0  0.00843  0.66065  0.13699  1.0000
  C   C414      1.0  0.39714  0.78183  0.18897  1.0000
  S   S97       1.0  0.28736  0.68362  0.43119  1.0000
  S   S98       1.0  0.39467  0.68628  0.46234  1.0000
  H   H720      1.0  0.06718  0.74148  0.06673  1.0000
  H   H721      1.0  0.03694  0.73348  0.06415  1.0000
  H   H722      1.0  0.04467  0.76394  0.06055  1.0000
  C   C415      1.0  0.39215  0.98581  0.09922  1.0000
  S   S99       1.0  0.17828  0.79267  0.00239  1.0000
  H   H723      1.0  0.24488  0.78053  0.43907  1.0000
  C   C416      1.0  0.24571  0.77294  0.06789  1.0000
  C   C417      1.0  0.23587  0.74579  0.45529  1.0000
  H   H724      1.0  0.47725  0.77226  0.32196  1.0000
  H   H725      1.0  0.32640  0.76869  0.09311  1.0000
  C   C418      1.0  0.22206  0.77712  0.08615  1.0000
  C   C419      1.0  0.30181  0.82391  0.47294  1.0000
  C   C420      1.0  0.08085  0.66383  0.13350  1.0000
  H   H726      1.0  0.28276  0.79505  0.42462  1.0000
  H   H727      1.0  0.31918  0.80439  0.12996  1.0000
  H   H728      1.0  0.28321  0.84480  0.00097  1.0000
  C   C421      1.0  0.43924  0.70318  0.39425  1.0000
  C   C422      1.0  0.31138  0.78767  0.13808  1.0000
  H   H729      1.0  0.32059  0.76041  0.17672  1.0000
  C   C423      1.0  0.21241  0.75073  0.47375  1.0000
  H   H730      1.0  0.38392  0.87617  0.11163  1.0000
  S   S100      1.0  0.01338  0.84131  0.18585  1.0000
  H   H731      1.0  0.42440  0.77345  0.29188  1.0000
  H   H732      1.0  0.41991  0.70630  0.39528  1.0000
  C   C424      1.0  0.29650  0.80336  0.06681  1.0000
  H   H733      1.0  0.28036  0.76639  0.02482  1.0000
  N   N23       1.0  0.42528  0.74074  0.26191  1.0000
  H   H734      1.0  0.26589  0.76448  0.11466  1.0000
  H   H735      1.0  0.15680  0.71690  0.33804  1.0000
  H   H736      1.0  0.38330  0.79596  0.18998  1.0000
  H   H737      1.0  0.14187  0.68057  0.23879  1.0000
  H   H738      1.0  0.38397  0.95271  0.16980  1.0000
  H   H739      1.0  0.44546  0.73917  0.40322  1.0000
  H   H740      1.0  0.31044  0.72966  0.06462  1.0000
  C   C425      1.0  0.30401  0.74489  0.39883  1.0000
  C   C426      1.0  0.27901  0.74971  0.41401  1.0000
  H   H741      1.0  0.37636  0.91679  0.08056  1.0000
  C   C427      1.0  0.44853  0.75022  0.98596  1.0000
  H   H742      1.0  0.40846  0.87255  0.08182  1.0000
  C   C428      1.0  0.30314  0.73021  0.36450  1.0000
  H   H743      1.0  0.24575  0.78394  0.04391  1.0000
  H   H744      1.0  0.20096  0.73546  0.47007  1.0000
  C   C429      1.0  0.09442  0.67548  0.26528  1.0000
  C   C430      1.0  0.40991  0.94490  0.10952  1.0000
  H   H745      1.0  0.26880  0.76008  0.39375  1.0000
  H   H746      1.0  0.27070  0.73232  0.41504  1.0000
  H   H747      1.0  0.34543  0.77279  0.15458  1.0000
  H   H748      1.0  0.44365  0.68564  0.40528  1.0000
  H   H749      1.0  0.30454  0.75352  0.11609  1.0000
  Fe  Fe51      1.0  0.37593  0.66072  0.42739  1.0000
  H   H750      1.0  0.41420  0.73852  0.20656  1.0000
  H   H751      1.0  0.42372  0.94609  0.08878  1.0000
  H   H752      1.0  0.31536  0.73533  0.41841  1.0000
  H   H753      1.0  0.31240  0.76150  0.39181  1.0000
  H   H754      1.0  0.40617  0.69581  0.28487  1.0000
  H   H755      1.0  0.38396  0.76646  0.23611  1.0000
  H   H756      1.0  0.44073  0.74745  0.01260  1.0000
  H   H757      1.0  0.29411  0.79163  0.15059  1.0000
  C   C431      1.0  0.44112  0.71945  0.25513  1.0000
  H   H758      1.0  0.43579  0.78568  0.98405  1.0000
  H   H759      1.0  0.48912  0.70018  0.47032  1.0000
  H   H760      1.0  0.31145  0.83767  0.02071  1.0000
  H   H761      1.0  0.32121  0.72696  0.35438  1.0000
  H   H762      1.0  0.44469  0.70328  0.36594  1.0000
  H   H763      1.0  0.29263  0.73956  0.34364  1.0000
  C   C432      1.0  0.09488  0.69826  0.10207  1.0000
  H   H764      1.0  0.47360  0.84627  0.43437  1.0000
  C   C433      1.0  0.38820  0.95947  0.09603  1.0000
  H   H765      1.0  0.44170  0.82248  0.99349  1.0000
  H   H766      1.0  0.24429  0.73009  0.46757  1.0000
  H   H767      1.0  0.20328  0.76643  0.46220  1.0000
  C   C434      1.0  0.40211  0.73368  0.27759  1.0000
  C   C435      1.0  0.06438  0.67632  0.35414  1.0000
  H   H768      1.0  0.28749  0.80252  0.00965  1.0000
  H   H769      1.0  0.40949  0.66961  0.35687  1.0000
  H   H770      1.0  0.00193  0.75223  0.02430  1.0000
  C   C436      1.0  0.44194  0.96780  0.34555  1.0000
  C   C437      1.0  0.40229  0.71168  0.30146  1.0000
  H   H771      1.0  0.46342  0.73075  0.21112  1.0000
  H   H772      1.0  0.20766  0.77251  0.06740  1.0000
  C   C438      1.0  0.45298  0.77630  0.98111  1.0000
  S   S101      1.0  0.09393  0.69505  0.40440  1.0000
  C   C439      1.0  0.28956  0.74604  0.47763  1.0000
  H   H773      1.0  0.26465  0.81528  0.03805  1.0000
  H   H774      1.0  0.30915  0.78127  0.44103  1.0000
  H   H775      1.0  0.44464  0.70954  0.27997  1.0000
  C   C440      1.0  0.29300  0.73585  0.05428  1.0000
  C   C441      1.0  0.29370  0.76242  0.04579  1.0000
  H   H776      1.0  0.21955  0.79589  0.09380  1.0000
  H   H777      1.0  0.20097  0.68464  0.44296  1.0000
  H   H778      1.0  0.28811  0.85037  0.04787  1.0000
  C   C442      1.0  0.46212  0.76853  0.33920  1.0000
  H   H779      1.0  0.45194  0.78516  0.34365  1.0000
  H   H780      1.0  0.03443  0.74957  0.23747  1.0000
  H   H781      1.0  0.29270  0.81599  0.08897  1.0000
  C   C443      1.0  0.07935  0.67161  0.38338  1.0000
  C   C444      1.0  0.28378  0.81354  0.03356  1.0000
  H   H782      1.0  0.37528  0.72144  0.33993  1.0000
  H   H783      1.0  0.45807  0.73391  0.31882  1.0000
  C   C445      1.0  0.20636  0.78320  0.98521  1.0000
  N   N24       1.0  0.29077  0.77871  0.07752  1.0000
  C   C446      1.0  0.29221  0.83810  0.02542  1.0000
  H   H784      1.0  0.31564  0.80434  0.06161  1.0000
  H   H785      1.0  0.38936  0.72946  0.25588  1.0000
  H   H786      1.0  0.09740  0.69315  0.15901  1.0000
  H   H787      1.0  0.31080  0.76540  0.03267  1.0000
  C   C447      1.0  0.12750  0.68575  0.30332  1.0000
  C   C448      1.0  0.26651  0.77812  0.09363  1.0000
  H   H788      1.0  0.43214  0.74650  0.33988  1.0000
  H   H789      1.0  0.23208  0.74153  0.42684  1.0000
  C   C449      1.0  0.42007  0.75198  0.22622  1.0000
  H   H790      1.0  0.43095  0.96507  0.32138  1.0000
  H   H791      1.0  0.01593  0.77596  0.23628  1.0000
  C   C450      1.0  0.02966  0.69291  0.44001  1.0000
  C   C451      1.0  0.28730  0.72121  0.02113  1.0000
  C   C452      1.0  0.21749  0.68462  0.45740  1.0000
  H   H792      1.0  0.45112  0.70334  0.46384  1.0000
  H   H793      1.0  0.37650  0.94300  0.23191  1.0000
  C   C453      1.0  0.06882  0.70469  0.23045  1.0000
  H   H794      1.0  0.05007  0.78074  0.27571  1.0000
  H   H795      1.0  0.17940  0.66327  0.21660  1.0000
  H   H796      1.0  0.38482  0.95536  0.06741  1.0000
  C   C454      1.0  0.29029  0.78461  0.44724  1.0000
  H   H797      1.0  0.05486  0.88001  0.99597  1.0000
  N   N25       1.0  0.27772  0.76178  0.45015  1.0000
  H   H798      1.0  0.32014  0.82095  0.46364  1.0000
  H   H799      1.0  0.46501  0.78172  0.00286  1.0000
  H   H800      1.0  0.03841  0.69885  0.41549  1.0000
  H   H801      1.0  0.10613  0.69997  0.22426  1.0000
  H   H802      1.0  0.14301  0.69946  0.37160  1.0000
  C   C455      1.0  0.02737  0.66630  0.43865  1.0000
  H   H803      1.0  0.00002  0.73446  0.22686  1.0000
  H   H804      1.0  0.26945  0.72596  0.01086  1.0000
  H   H805      1.0  0.48006  0.91026  0.17523  1.0000
  H   H806      1.0  0.01706  0.69370  0.21901  1.0000
  H   H807      1.0  0.43375  0.95866  0.36807  1.0000
  H   H808      1.0  0.98962  0.86674  0.05637  1.0000
  H   H809      1.0  0.04049  0.69814  0.46323  1.0000
  S   S102      1.0  0.07661  0.75934  0.98557  1.0000
  H   H810      1.0  0.99841  0.66817  0.47493  1.0000
  H   H811      1.0  0.04135  0.66190  0.31377  1.0000
  H   H812      1.0  0.38148  0.87894  0.02947  1.0000
  H   H813      1.0  0.05805  0.84893  0.98913  1.0000
  H   H814      1.0  0.15172  0.66346  0.33625  1.0000
  C   C456      1.0  0.99399  0.77158  0.17071  1.0000
  H   H815      1.0  0.01757  0.66237  0.41375  1.0000
  H   H816      1.0  0.47817  0.90983  0.12723  1.0000
  H   H817      1.0  0.00931  0.88977  0.98548  1.0000
  H   H818      1.0  0.01945  0.86486  0.01023  1.0000
  H   H819      1.0  0.29155  0.83366  0.45220  1.0000
  Fe  Fe52      1.0  0.10778  0.69196  0.46145  1.0000
  H   H820      1.0  0.99685  0.79074  0.16765  1.0000
  H   H821      1.0  0.30878  0.74897  0.47815  1.0000
  H   H822      1.0  0.42922  0.76386  0.46495  1.0000
  H   H823      1.0  0.01977  0.82772  0.98689  1.0000
  H   H824      1.0  0.46520  0.73967  0.98421  1.0000
  H   H825      1.0  0.41219  0.85498  0.99325  1.0000
  C   C457      1.0  0.99916  0.69860  0.20922  1.0000
  C   C458      1.0  0.00791  0.87036  0.98743  1.0000
  H   H826      1.0  0.99163  0.92409  0.33724  1.0000
  C   C459      1.0  0.44380  0.80730  0.47580  1.0000
  H   H827      1.0  0.48075  0.81498  0.98978  1.0000
  H   H828      1.0  0.46868  0.88504  0.15251  1.0000
  H   H829      1.0  0.99523  0.68816  0.18483  1.0000
  H   H830      1.0  0.01211  0.70187  0.44161  1.0000
  H   H831      1.0  0.42448  0.80590  0.47838  1.0000
  C   C460      1.0  0.22376  0.79989  0.98026  1.0000
  S   S103      1.0  0.08215  0.69142  0.50631  1.0000
  Fe  Fe53      1.0  0.15078  0.68871  0.51011  1.0000
  C   C461      1.0  0.45037  0.73680  0.51722  1.0000
  S   S104      1.0  0.19095  0.68703  0.52044  1.0000
  Fe  Fe54      1.0  0.10558  0.71626  0.53558  1.0000
  S   S105      1.0  0.08546  0.73774  0.57780  1.0000
  H   H832      1.0  0.99463  0.68234  0.79258  1.0000
  S   S106      1.0  0.12806  0.68731  0.55934  1.0000
  Fe  Fe55      1.0  0.01904  0.90117  0.69596  1.0000
  N   N26       1.0  0.01621  0.85852  0.95331  1.0000
  C   C462      1.0  0.21746  0.68559  0.49479  1.0000
  Fe  Fe56      1.0  0.04812  0.85739  0.66928  1.0000
  S   S107      1.0  0.03122  0.83334  0.70742  1.0000
  S   S108      1.0  0.07579  0.84450  0.62939  1.0000
  H   H833      1.0  0.27728  0.68425  0.50846  1.0000
  Fe  Fe57      1.0  0.03492  0.86216  0.74790  1.0000
  S   S109      1.0  0.04899  0.85858  0.80502  1.0000
  S   S110      1.0  0.01428  0.87468  0.65084  1.0000
  S   S111      1.0  0.05446  0.88546  0.71088  1.0000
  H   H834      1.0  0.46804  0.72780  0.81064  1.0000
  Fe  Fe58      1.0  0.36605  0.68108  0.50174  1.0000
  S   S112      1.0  0.09547  0.77025  0.88513  1.0000
  Fe  Fe59      1.0  0.36908  0.74765  0.93299  1.0000
  S   S113      1.0  0.34446  0.76788  0.89649  1.0000
  S   S114      1.0  0.39482  0.71781  0.91741  1.0000
  H   H835      1.0  0.18509  0.82081  0.90256  1.0000
  Fe  Fe60      1.0  0.31957  0.77084  0.94386  1.0000
  C   C463      1.0  0.38763  0.74364  0.80343  1.0000
  Fe  Fe61      1.0  0.36191  0.79965  0.91976  1.0000
  S   S115      1.0  0.37831  0.83086  0.89324  1.0000
  H   H836      1.0  0.04143  0.72314  0.51863  1.0000
  S   S116      1.0  0.44869  0.82928  0.76173  1.0000
  C   C464      1.0  0.39072  0.69534  0.88495  1.0000
  C   C465      1.0  0.37043  0.69431  0.86374  1.0000
  C   C466      1.0  0.46522  0.70189  0.85111  1.0000
  H   H837      1.0  0.14853  0.66556  0.62635  1.0000
  H   H838      1.0  0.17425  0.69916  0.88830  1.0000
  C   C467      1.0  0.40874  0.67825  0.87996  1.0000
  H   H839      1.0  0.35638  0.70728  0.86736  1.0000
  C   C468      1.0  0.48118  0.80551  0.89949  1.0000
  C   C469      1.0  0.22788  0.76532  0.86200  1.0000
  C   C470      1.0  0.39932  0.82880  0.85855  1.0000
  C   C471      1.0  0.39942  0.81048  0.83343  1.0000
  C   C472      1.0  0.41471  0.81081  0.80402  1.0000
  C   C473      1.0  0.43055  0.82901  0.80004  1.0000
  C   C474      1.0  0.43112  0.84678  0.82600  1.0000
  C   C475      1.0  0.41533  0.84686  0.85475  1.0000
  H   H840      1.0  0.38695  0.79669  0.83583  1.0000
  H   H841      1.0  0.41399  0.79719  0.78385  1.0000
  H   H842      1.0  0.44301  0.86103  0.82309  1.0000
  H   H843      1.0  0.41518  0.86126  0.87374  1.0000
  H   H844      1.0  0.44750  0.69520  0.67905  1.0000
  H   H845      1.0  0.43031  0.67028  0.69028  1.0000
  C   C476      1.0  0.44818  0.82188  0.93482  1.0000
  C   C477      1.0  0.18269  0.74744  0.88669  1.0000
  C   C478      1.0  0.06121  0.83343  0.82664  1.0000
  C   C479      1.0  0.06176  0.81114  0.81073  1.0000
  C   C480      1.0  0.07234  0.79191  0.82887  1.0000
  C   C481      1.0  0.08194  0.79468  0.86334  1.0000
  C   C482      1.0  0.08123  0.81694  0.87922  1.0000
  C   C483      1.0  0.07110  0.83619  0.86084  1.0000
  H   H846      1.0  0.05399  0.80872  0.78458  1.0000
  H   H847      1.0  0.07278  0.77473  0.81637  1.0000
  H   H848      1.0  0.08868  0.81932  0.90557  1.0000
  H   H849      1.0  0.07125  0.85345  0.87290  1.0000
  S   S117      1.0  0.34363  0.74836  0.97870  1.0000
  C   C484      1.0  0.02321  0.72147  0.52826  1.0000
  H   H850      1.0  0.11214  0.67964  0.66035  1.0000
  C   C485      1.0  0.00515  0.85668  0.88568  1.0000
  C   C486      1.0  0.14824  0.82829  0.90590  1.0000
  C   C487      1.0  0.08388  0.76756  0.59160  1.0000
  C   C488      1.0  0.09524  0.78531  0.57369  1.0000
  C   C489      1.0  0.09269  0.80881  0.58558  1.0000
  C   C490      1.0  0.07849  0.81480  0.61503  1.0000
  C   C491      1.0  0.06726  0.79699  0.63295  1.0000
  C   C492      1.0  0.07020  0.77352  0.62154  1.0000
  H   H851      1.0  0.10589  0.78095  0.55066  1.0000
  H   H852      1.0  0.10154  0.82245  0.57163  1.0000
  H   H853      1.0  0.05637  0.80128  0.65567  1.0000
  H   H854      1.0  0.06185  0.75982  0.63605  1.0000
  H   H855      1.0  0.17457  0.65681  0.57943  1.0000
  C   C493      1.0  0.01683  0.96886  0.70443  1.0000
  C   C494      1.0  0.02869  0.97142  0.73711  1.0000
  C   C495      1.0  0.10806  0.66105  0.66546  1.0000
  H   H856      1.0  0.46528  0.77563  0.87162  1.0000
  H   H857      1.0  0.03523  0.95597  0.75095  1.0000
  H   H858      1.0  0.25535  0.78681  0.88503  1.0000
  C   C496      1.0  0.00867  0.80619  0.59712  1.0000
  H   H859      1.0  0.05243  0.81960  0.94752  1.0000
  H   H860      1.0  0.45240  0.78292  0.51742  1.0000
  H   H861      1.0  0.48179  0.76414  0.71334  1.0000
  N   N27       1.0  0.46979  0.80573  0.93581  1.0000
  C   C497      1.0  0.36822  0.67627  0.83796  1.0000
  C   C498      1.0  0.44107  0.83438  0.97040  1.0000
  H   H862      1.0  0.02728  0.80272  0.58969  1.0000
  H   H863      1.0  0.08866  0.65950  0.66488  1.0000
  H   H864      1.0  0.02985  0.68096  0.61989  1.0000
  C   C499      1.0  0.46319  0.78088  0.94376  1.0000
  H   H865      1.0  0.48508  0.82370  0.89125  1.0000
  H   H866      1.0  0.14442  0.74492  0.89419  1.0000
  H   H867      1.0  0.16479  0.71286  0.92970  1.0000
  C   C500      1.0  0.23466  0.75307  0.96443  1.0000
  H   H868      1.0  0.47349  0.77370  0.75729  1.0000
  C   C501      1.0  0.03445  0.81715  0.93678  1.0000
  H   H869      1.0  0.42010  0.69036  0.65622  1.0000
  H   H870      1.0  0.15004  0.84727  0.90068  1.0000
  H   H871      1.0  0.02283  0.72399  0.63926  1.0000
  C   C502      1.0  0.38636  0.65929  0.83275  1.0000
  H   H872      1.0  0.00830  0.74765  0.69015  1.0000
  H   H873      1.0  0.18620  0.78746  0.82032  1.0000
  H   H874      1.0  0.03344  0.72055  0.58327  1.0000
  S   S118      1.0  0.01187  0.94069  0.68389  1.0000
  C   C503      1.0  0.04013  0.86766  0.94505  1.0000
  H   H875      1.0  0.23183  0.75006  0.87957  1.0000
  H   H876      1.0  0.99311  0.86086  0.83094  1.0000
  C   C504      1.0  0.02948  0.79105  0.93917  1.0000
  H   H877      1.0  0.18352  0.75672  0.82016  1.0000
  C   C505      1.0  0.05466  0.65974  0.58985  1.0000
  H   H878      1.0  0.38981  0.73695  0.83105  1.0000
  C   C506      1.0  0.01632  0.83222  0.95844  1.0000
  H   H879      1.0  0.22603  0.65660  0.58777  1.0000
  C   C507      1.0  0.41625  0.84518  0.96820  1.0000
  H   H880      1.0  0.01883  0.70263  0.52791  1.0000
  N   N28       1.0  0.11924  0.84569  0.74117  1.0000
  C   C508      1.0  0.11430  0.86334  0.77071  1.0000
  C   C509      1.0  0.11426  0.85650  0.70498  1.0000
  C   C510      1.0  0.10249  0.82588  0.74580  1.0000
  C   C511      1.0  0.14393  0.83550  0.74315  1.0000
  C   C512      1.0  0.16396  0.85316  0.74229  1.0000
  C   C513      1.0  0.12022  0.85514  0.80926  1.0000
  C   C514      1.0  0.10302  0.80656  0.71622  1.0000
  C   C515      1.0  0.11962  0.88284  0.70028  1.0000
  C   C516      1.0  0.11689  0.89026  0.66134  1.0000
  C   C517      1.0  0.18751  0.84121  0.75208  1.0000
  C   C518      1.0  0.11422  0.87455  0.83640  1.0000
  C   C519      1.0  0.08495  0.78794  0.72327  1.0000
  H   H881      1.0  0.09542  0.86917  0.76975  1.0000
  H   H882      1.0  0.12418  0.87955  0.76712  1.0000
  H   H883      1.0  0.12356  0.84629  0.68359  1.0000
  H   H884      1.0  0.09529  0.85532  0.69809  1.0000
  H   H885      1.0  0.08406  0.83305  0.74740  1.0000
  H   H886      1.0  0.10595  0.81662  0.77133  1.0000
  H   H887      1.0  0.14617  0.82454  0.76742  1.0000
  H   H888      1.0  0.14734  0.82331  0.72033  1.0000
  H   H889      1.0  0.16106  0.86799  0.76118  1.0000
  H   H890      1.0  0.16562  0.86006  0.71487  1.0000
  H   H891      1.0  0.11025  0.83960  0.81651  1.0000
  H   H892      1.0  0.13921  0.85066  0.81230  1.0000
  H   H893      1.0  0.12041  0.79735  0.71512  1.0000
  H   H894      1.0  0.09905  0.81406  0.68957  1.0000
  H   H895      1.0  0.10706  0.89395  0.71606  1.0000
  H   H896      1.0  0.13756  0.88697  0.70921  1.0000
  H   H897      1.0  0.12874  0.87953  0.64388  1.0000
  H   H898      1.0  0.09846  0.88828  0.65214  1.0000
  H   H899      1.0  0.12128  0.90899  0.65872  1.0000
  H   H900      1.0  0.18721  0.83457  0.77986  1.0000
  H   H901      1.0  0.19160  0.82640  0.73344  1.0000
  H   H902      1.0  0.20170  0.85406  0.75025  1.0000
  H   H903      1.0  0.12528  0.88996  0.83221  1.0000
  H   H904      1.0  0.09543  0.88017  0.83399  1.0000
  H   H905      1.0  0.11739  0.86797  0.86387  1.0000
  H   H906      1.0  0.08611  0.77413  0.70219  1.0000
  H   H907      1.0  0.08819  0.77957  0.74956  1.0000
  H   H908      1.0  0.06693  0.79584  0.72275  1.0000
  H   H909      1.0  0.02327  0.86057  0.87775  1.0000
  H   H910      1.0  0.45775  0.71368  0.87218  1.0000
  C   C520      1.0  0.24637  0.79327  0.96752  1.0000
  C   C521      1.0  0.16698  0.78765  0.89565  1.0000
  C   C522      1.0  0.16885  0.81443  0.88955  1.0000
  H   H911      1.0  0.02593  0.66222  0.49584  1.0000
  H   H912      1.0  0.99915  0.98782  0.66201  1.0000
  C   C523      1.0  0.44578  0.71157  0.53034  1.0000
  H   H913      1.0  0.46034  0.69902  0.52385  1.0000
  H   H914      1.0  0.19578  0.73593  0.87265  1.0000
  H   H915      1.0  0.18824  0.66390  0.64538  1.0000
  C   C524      1.0  0.45897  0.71104  0.81390  1.0000
  S   S119      1.0  0.37017  0.67868  0.56220  1.0000
  H   H916      1.0  0.08476  0.88639  0.94868  1.0000
  C   C525      1.0  0.42938  0.68899  0.68236  1.0000
  N   N29       1.0  0.42304  0.72179  0.77317  1.0000
  C   C526      1.0  0.42775  0.70144  0.74793  1.0000
  C   C527      1.0  0.43215  0.71522  0.80980  1.0000
  C   C528      1.0  0.39666  0.72505  0.77586  1.0000
  C   C529      1.0  0.43344  0.74441  0.76078  1.0000
  C   C530      1.0  0.45635  0.74218  0.73852  1.0000
  C   C531      1.0  0.41617  0.70378  0.71035  1.0000
  H   H917      1.0  0.44886  0.80303  0.86720  1.0000
  H   H918      1.0  0.40321  0.83124  0.96489  1.0000
  H   H919      1.0  0.00130  0.69495  0.70197  1.0000
  C   C532      1.0  0.46682  0.76610  0.73202  1.0000
  C   C533      1.0  0.46677  0.79485  0.86847  1.0000
  H   H920      1.0  0.42951  0.70502  0.51764  1.0000
  H   H921      1.0  0.42118  0.68500  0.75964  1.0000
  H   H922      1.0  0.44683  0.69790  0.74455  1.0000
  H   H923      1.0  0.42759  0.72914  0.82974  1.0000
  H   H924      1.0  0.42344  0.69915  0.81881  1.0000
  H   H925      1.0  0.38853  0.70811  0.78266  1.0000
  H   H926      1.0  0.38899  0.73023  0.74958  1.0000
  H   H927      1.0  0.42057  0.75455  0.74391  1.0000
  H   H928      1.0  0.43685  0.75617  0.78408  1.0000
  H   H929      1.0  0.45269  0.73440  0.71192  1.0000
  H   H930      1.0  0.46997  0.73092  0.75156  1.0000
  H   H931      1.0  0.39784  0.69765  0.71135  1.0000
  H   H932      1.0  0.41533  0.72223  0.70119  1.0000
  C   C534      1.0  0.99591  0.73140  0.57966  1.0000
  H   H933      1.0  0.45317  0.84878  0.97644  1.0000
  H   H934      1.0  0.99857  0.82542  0.95262  1.0000
  H   H935      1.0  0.45804  0.71705  0.58512  1.0000
  S   S120      1.0  0.28048  0.76011  0.94356  1.0000
  C   C535      1.0  0.25219  0.76971  0.95998  1.0000
  H   H936      1.0  0.43272  0.81223  0.92457  1.0000
  C   C536      1.0  0.03511  0.66332  0.61218  1.0000
  C   C537      1.0  0.47878  0.79858  0.83285  1.0000
  H   H937      1.0  0.45352  0.77847  0.72016  1.0000
  H   H938      1.0  0.44945  0.77496  0.92467  1.0000
  H   H939      1.0  0.00793  0.81297  0.62500  1.0000
  H   H940      1.0  0.35810  0.75667  0.77093  1.0000
  H   H941      1.0  0.46349  0.74470  0.53562  1.0000
  C   C538      1.0  0.36148  0.74938  0.79794  1.0000
  H   H942      1.0  0.35110  0.73339  0.80139  1.0000
  C   C539      1.0  0.23932  0.68555  0.51282  1.0000
  H   H943      1.0  0.02965  0.78540  0.96748  1.0000
  H   H944      1.0  0.99740  0.77742  0.56525  1.0000
  H   H945      1.0  0.16958  0.81856  0.86073  1.0000
  H   H946      1.0  0.22896  0.67314  0.62875  1.0000
  H   H947      1.0  0.26317  0.73977  0.51875  1.0000
  H   H948      1.0  0.26509  0.76681  0.85041  1.0000
  H   H949      1.0  0.20929  0.79862  0.86678  1.0000
  C   C540      1.0  0.21626  0.66711  0.60824  1.0000
  H   H950      1.0  0.00123  0.81994  0.57922  1.0000
  H   H951      1.0  0.28997  0.73575  0.56978  1.0000
  C   C541      1.0  0.44213  0.71114  0.57071  1.0000
  C   C542      1.0  0.29727  0.73501  0.54240  1.0000
  H   H952      1.0  0.01218  0.78732  0.92686  1.0000
  Fe  Fe62      1.0  0.10283  0.76993  0.94519  1.0000
  Fe  Fe63      1.0  0.99720  0.85173  0.69091  1.0000
  H   H953      1.0  0.25917  0.80650  0.96306  1.0000
  H   H954      1.0  0.42440  0.67881  0.89640  1.0000
  H   H955      1.0  0.17069  0.78461  0.92455  1.0000
  H   H956      1.0  0.15002  0.75270  0.77826  1.0000
  H   H957      1.0  0.13138  0.82260  0.89413  1.0000
  H   H958      1.0  0.14835  0.78294  0.89226  1.0000
  H   H959      1.0  0.14472  0.79535  0.82876  1.0000
  H   H960      1.0  0.24831  0.79304  0.83885  1.0000
  H   H961      1.0  0.45025  0.83620  0.91515  1.0000
  C   C543      1.0  0.15052  0.77688  0.82361  1.0000
  H   H962      1.0  0.03444  0.82176  0.90824  1.0000
  C   C544      1.0  0.15927  0.73465  0.88249  1.0000
  H   H963      1.0  0.13891  0.76571  0.83907  1.0000
  H   H964      1.0  0.12741  0.77540  0.77752  1.0000
  H   H965      1.0  0.15726  0.78241  0.76703  1.0000
  C   C545      1.0  0.14615  0.77156  0.78411  1.0000
  H   H966      1.0  0.00267  0.83749  0.88400  1.0000
  C   C546      1.0  0.00257  0.76523  0.62089  1.0000
  S   S121      1.0  0.99941  0.87902  0.73511  1.0000
  H   H967      1.0  0.21183  0.78290  0.90728  1.0000
  H   H968      1.0  0.37119  0.66318  0.63484  1.0000
  H   H969      1.0  0.43861  0.69298  0.57918  1.0000
  C   C547      1.0  0.17692  0.77309  0.83368  1.0000
  N   N30       1.0  0.18309  0.77224  0.87303  1.0000
  C   C548      1.0  0.20775  0.78083  0.87831  1.0000
  C   C549      1.0  0.02158  0.73144  0.56611  1.0000
  H   H970      1.0  0.06417  0.67462  0.58062  1.0000
  H   H971      1.0  0.04781  0.85854  0.92162  1.0000
  H   H972      1.0  0.02203  0.76361  0.62094  1.0000
  C   C550      1.0  0.25047  0.77890  0.85889  1.0000
  Fe  Fe64      1.0  0.48284  0.84912  0.76124  1.0000
  S   S122      1.0  0.12969  0.71975  0.48825  1.0000
  H   H973      1.0  0.18788  0.74713  0.91542  1.0000
  H   H974      1.0  0.46585  0.69787  0.79446  1.0000
  H   H975      1.0  0.48455  0.70083  0.85446  1.0000
  H   H976      1.0  0.14814  0.82579  0.93525  1.0000
  C   C551      1.0  0.28053  0.74791  0.51662  1.0000
  H   H977      1.0  0.04326  0.78072  0.92459  1.0000
  C   C552      1.0  0.01017  0.71178  0.70696  1.0000
  Fe  Fe65      1.0  0.10517  0.66292  0.52861  1.0000
  H   H978      1.0  0.20797  0.68282  0.59541  1.0000
  H   H979      1.0  0.43350  0.74672  0.52225  1.0000
  H   H980      1.0  0.31468  0.74326  0.54293  1.0000
  H   H981      1.0  0.35236  0.67543  0.82197  1.0000
  H   H982      1.0  0.03860  0.88646  0.93720  1.0000
  H   H983      1.0  0.39723  0.76012  0.80127  1.0000
  H   H984      1.0  0.02927  0.70913  0.70193  1.0000
  H   H985      1.0  0.47871  0.76873  0.94002  1.0000
  H   H986      1.0  0.45845  0.68398  0.85446  1.0000
  S   S123      1.0  0.38742  0.77940  0.95422  1.0000
  C   C553      1.0  0.99970  0.73103  0.68299  1.0000
  H   H987      1.0  0.42679  0.72257  0.57829  1.0000
  H   H988      1.0  0.23970  0.68636  0.54165  1.0000
  H   H989      1.0  0.99766  0.70659  0.63832  1.0000
  H   H990      1.0  0.11466  0.65597  0.69236  1.0000
  H   H991      1.0  0.35556  0.76271  0.81794  1.0000
  H   H992      1.0  0.14339  0.70229  0.89830  1.0000
  H   H993      1.0  0.08846  0.85489  0.94314  1.0000
  C   C554      1.0  0.16061  0.71080  0.90084  1.0000
  H   H994      1.0  0.15549  0.73125  0.85383  1.0000
  H   H995      1.0  0.22315  0.75871  0.83503  1.0000
  C   C555      1.0  0.26077  0.68446  0.49402  1.0000
  H   H996      1.0  0.99048  0.71282  0.57838  1.0000
  H   H997      1.0  0.00776  0.71681  0.73543  1.0000
  H   H998      1.0  0.99807  0.77308  0.64739  1.0000
  H   H999      1.0  0.98996  0.86171  0.57195  1.0000
  H   H1000     1.0  0.27846  0.76625  0.52611  1.0000
  H   H1001     1.0  0.46792  0.79105  0.81123  1.0000
  H   H1002     1.0  0.02846  0.74940  0.56546  1.0000
  H   H1003     1.0  0.23871  0.73481  0.95836  1.0000
  C   C556      1.0  0.00349  0.72485  0.64308  1.0000
  H   H1004     1.0  0.29966  0.71629  0.53439  1.0000
  C   C557      1.0  0.40672  0.66046  0.85380  1.0000
  S   S124      1.0  0.33493  0.80460  0.96346  1.0000
  H   H1005     1.0  0.41452  0.85745  0.94540  1.0000
  S   S125      1.0  0.13121  0.74635  0.96897  1.0000
  C   C558      1.0  0.39051  0.66023  0.58573  1.0000
  H   H1006     1.0  0.44940  0.82250  0.49216  1.0000
  C   C559      1.0  0.08344  0.86921  0.96212  1.0000
  C   C560      1.0  0.21204  0.75968  0.97713  1.0000
  H   H1007     1.0  0.01123  0.73135  0.50985  1.0000
  H   H1008     1.0  0.48128  0.88671  0.90869  1.0000
  C   C561      1.0  0.05854  0.86605  0.97572  1.0000
  H   H1009     1.0  0.43598  0.74392  0.96535  1.0000
  N   N31       1.0  0.99197  0.74143  0.61661  1.0000
  S   S126      1.0  0.12966  0.66125  0.48145  1.0000
  H   H1010     1.0  0.21514  0.75349  0.50287  1.0000
  C   C562      1.0  0.99474  0.78386  0.59291  1.0000
  H   H1011     1.0  0.48324  0.90628  0.87153  1.0000
  H   H1012     1.0  0.48047  0.81759  0.82767  1.0000
  H   H1013     1.0  0.30128  0.79204  0.50225  1.0000
  C   C563      1.0  0.48807  0.81340  0.96254  1.0000
  H   H1014     1.0  0.48706  0.85020  0.94419  1.0000
  S   S127      1.0  0.11302  0.80170  0.97621  1.0000
  S   S128      1.0  0.34361  0.71101  0.47982  1.0000
  C   C564      1.0  0.45645  0.78488  0.48873  1.0000
  H   H1015     1.0  0.30222  0.83488  0.49759  1.0000
  H   H1016     1.0  0.48890  0.91682  0.91643  1.0000
  H   H1017     1.0  0.47558  0.78741  0.48600  1.0000
  H   H1018     1.0  0.24982  0.77510  0.48475  1.0000
  H   H1019     1.0  0.27263  0.80465  0.49086  1.0000
  C   C565      1.0  0.99935  0.86583  0.92379  1.0000
  H   H1020     1.0  0.99775  0.88537  0.92280  1.0000
  C   C566      1.0  0.38679  0.65592  0.62211  1.0000
  C   C567      1.0  0.29054  0.80056  0.48089  1.0000
  H   H1021     1.0  0.99095  0.88731  0.85734  1.0000
  Fe  Fe66      1.0  0.86934  0.19760  0.01343  1.0000
  S   S129      1.0  0.87631  0.19819  0.07350  1.0000
  H   H1022     1.0  0.87830  0.15056  0.24716  1.0000
  C   C568      1.0  0.91947  0.00109  0.34859  1.0000
  H   H1023     1.0  0.50231  0.10897  0.01637  1.0000
  Fe  Fe67      1.0  0.64940  0.19753  0.01794  1.0000
  S   S130      1.0  0.62667  0.22094  0.98249  1.0000
  S   S131      1.0  0.68851  0.20721  0.02607  1.0000
  Fe  Fe68      1.0  0.60619  0.16832  0.03759  1.0000
  S   S132      1.0  0.58188  0.18919  0.00208  1.0000
  S   S133      1.0  0.59142  0.13771  0.06828  1.0000
  C   C569      1.0  0.73499  0.21675  0.01180  1.0000
  Fe  Fe69      1.0  0.59944  0.22063  0.02581  1.0000
  S   S134      1.0  0.57243  0.24919  0.04204  1.0000
  S   S135      1.0  0.63460  0.16408  0.99579  1.0000
  S   S136      1.0  0.62284  0.19969  0.06312  1.0000
  S   S137      1.0  0.59314  0.27291  0.40632  1.0000
  Fe  Fe70      1.0  0.86177  0.24733  0.43737  1.0000
  S   S138      1.0  0.84236  0.27557  0.40612  1.0000
  S   S139      1.0  0.88464  0.21678  0.41605  1.0000
  Fe  Fe71      1.0  0.81810  0.27872  0.45419  1.0000
  S   S140      1.0  0.77815  0.28732  0.44903  1.0000
  Fe  Fe72      1.0  0.86581  0.30066  0.43501  1.0000
  H   H1024     1.0  0.53252  0.20762  0.03898  1.0000
  Fe  Fe73      1.0  0.93449  0.11199  0.21670  1.0000
  S   S141      1.0  0.91004  0.08702  0.24215  1.0000
  S   S142      1.0  0.93125  0.11586  0.15635  1.0000
  Fe  Fe74      1.0  0.96175  0.12004  0.28764  1.0000
  S   S143      1.0  0.93931  0.09466  0.31658  1.0000
  Fe  Fe75      1.0  0.94247  0.07091  0.26777  1.0000
  S   S144      1.0  0.95386  0.03155  0.26927  1.0000
  Fe  Fe76      1.0  0.90927  0.11299  0.28804  1.0000
  S   S145      1.0  0.87588  0.12745  0.31407  1.0000
  S   S146      1.0  0.96728  0.09527  0.24083  1.0000
  S   S147      1.0  0.93127  0.13894  0.26044  1.0000
  C   C570      1.0  0.88123  0.19297  0.38594  1.0000
  C   C571      1.0  0.85932  0.18584  0.37360  1.0000
  C   C572      1.0  0.85781  0.16574  0.35149  1.0000
  C   C573      1.0  0.87816  0.15288  0.34123  1.0000
  C   C574      1.0  0.90004  0.16036  0.35302  1.0000
  C   C575      1.0  0.90151  0.18013  0.37547  1.0000
  H   H1025     1.0  0.84355  0.19542  0.38175  1.0000
  H   H1026     1.0  0.84080  0.16001  0.34253  1.0000
  H   H1027     1.0  0.91585  0.15063  0.34533  1.0000
  H   H1028     1.0  0.91854  0.18548  0.38474  1.0000
  H   H1029     1.0  0.89669  0.29768  0.35525  1.0000
  C   C576      1.0  0.94545  0.00416  0.24989  1.0000
  H   H1030     1.0  0.51156  0.12748  0.05146  1.0000
  H   H1031     1.0  0.91030  0.01510  0.23500  1.0000
  C   C577      1.0  0.55871  0.30025  0.11610  1.0000
  H   H1032     1.0  0.94430  0.28067  0.44492  1.0000
  C   C578      1.0  0.52066  0.13868  0.12750  1.0000
  C   C579      1.0  0.53393  0.11780  0.12344  1.0000
  C   C580      1.0  0.55545  0.11773  0.10498  1.0000
  C   C581      1.0  0.56382  0.13841  0.09010  1.0000
  C   C582      1.0  0.55028  0.15916  0.09352  1.0000
  C   C583      1.0  0.52892  0.15927  0.11225  1.0000
  H   H1033     1.0  0.52787  0.10182  0.13508  1.0000
  H   H1034     1.0  0.56580  0.10157  0.10251  1.0000
  H   H1035     1.0  0.55643  0.17517  0.08209  1.0000
  H   H1036     1.0  0.51919  0.28005  0.01764  1.0000
  H   H1037     1.0  0.94149  0.07867  0.08560  1.0000
  C   C584      1.0  0.95840  0.07003  0.09393  1.0000
  C   C585      1.0  0.57555  0.29454  0.38414  1.0000
  H   H1038     1.0  0.54610  0.15009  0.01304  1.0000
  C   C586      1.0  0.96845  0.28130  0.99825  1.0000
  C   C587      1.0  0.90355  0.04481  0.16579  1.0000
  H   H1039     1.0  0.97084  0.06682  0.03917  1.0000
  C   C588      1.0  0.59803  0.27356  0.09305  1.0000
  C   C589      1.0  0.57625  0.27023  0.07659  1.0000
  C   C590      1.0  0.55671  0.28388  0.08794  1.0000
  H   H1040     1.0  0.97122  0.99721  0.10836  1.0000
  H   H1041     1.0  0.85632  0.12926  0.15065  1.0000
  H   H1042     1.0  0.61329  0.26340  0.08423  1.0000
  H   H1043     1.0  0.53990  0.28164  0.07512  1.0000
  C   C591      1.0  0.96765  0.19407  0.41938  1.0000
  C   C592      1.0  0.89094  0.17482  0.09637  1.0000
  C   C593      1.0  0.89702  0.15366  0.07919  1.0000
  C   C594      1.0  0.90912  0.13568  0.09804  1.0000
  C   C595      1.0  0.91498  0.13853  0.13433  1.0000
  C   C596      1.0  0.90848  0.15952  0.15171  1.0000
  C   C597      1.0  0.89650  0.17756  0.13279  1.0000
  H   H1044     1.0  0.89257  0.15123  0.05130  1.0000
  H   H1045     1.0  0.91409  0.11953  0.08433  1.0000
  H   H1046     1.0  0.91321  0.16201  0.17947  1.0000
  H   H1047     1.0  0.89186  0.19387  0.14625  1.0000
  C   C598      1.0  0.71691  0.20062  0.00714  1.0000
  H   H1048     1.0  0.70624  0.30580  0.35989  1.0000
  H   H1049     1.0  0.67040  0.29755  0.33541  1.0000
  H   H1050     1.0  0.73151  0.23267  0.02705  1.0000
  H   H1051     1.0  0.74792  0.29556  0.34615  1.0000
  N   N32       1.0  0.79755  0.17140  0.08449  1.0000
  C   C599      1.0  0.80539  0.16070  0.04945  1.0000
  C   C600      1.0  0.80888  0.19481  0.08908  1.0000
  C   C601      1.0  0.80078  0.21423  0.06263  1.0000
  C   C602      1.0  0.79725  0.13543  0.04154  1.0000
  H   H1052     1.0  0.62674  0.26744  0.34137  1.0000
  C   C603      1.0  0.81309  0.23713  0.07070  1.0000
  H   H1053     1.0  0.76490  0.18252  0.05871  1.0000
  H   H1054     1.0  0.79875  0.17156  0.02683  1.0000
  H   H1055     1.0  0.80652  0.20171  0.11674  1.0000
  H   H1056     1.0  0.82817  0.19275  0.08578  1.0000
  H   H1057     1.0  0.78163  0.21800  0.06428  1.0000
  H   H1058     1.0  0.80510  0.20900  0.03482  1.0000
  H   H1059     1.0  0.76687  0.20537  0.11891  1.0000
  H   H1060     1.0  0.80306  0.12309  0.06276  1.0000
  H   H1061     1.0  0.77785  0.13518  0.03908  1.0000
  H   H1062     1.0  0.63738  0.22658  0.13095  1.0000
  H   H1063     1.0  0.66859  0.28486  0.43536  1.0000
  H   H1064     1.0  0.80752  0.25054  0.05078  1.0000
  H   H1065     1.0  0.80843  0.24382  0.09773  1.0000
  H   H1066     1.0  0.83246  0.23446  0.06911  1.0000
  N   N33       1.0  0.89870  0.21935  0.27220  1.0000
  C   C604      1.0  0.87724  0.23070  0.28933  1.0000
  C   C605      1.0  0.89415  0.19404  0.26207  1.0000
  C   C606      1.0  0.91823  0.21952  0.29972  1.0000
  C   C607      1.0  0.90662  0.23267  0.24010  1.0000
  C   C608      1.0  0.88818  0.23661  0.21004  1.0000
  C   C609      1.0  0.87994  0.25600  0.30412  1.0000
  C   C610      1.0  0.94171  0.20695  0.28897  1.0000
  C   C611      1.0  0.86851  0.18785  0.25201  1.0000
  C   C612      1.0  0.86741  0.16406  0.23307  1.0000
  C   C613      1.0  0.89828  0.25057  0.17945  1.0000
  C   C614      1.0  0.85605  0.26728  0.31325  1.0000
  H   H1067     1.0  0.62838  0.29750  0.35643  1.0000
  H   H1068     1.0  0.87157  0.21978  0.31210  1.0000
  H   H1069     1.0  0.86208  0.23129  0.27062  1.0000
  H   H1070     1.0  0.90583  0.18806  0.23986  1.0000
  H   H1071     1.0  0.89882  0.18212  0.28464  1.0000
  H   H1072     1.0  0.91216  0.21154  0.32486  1.0000
  H   H1073     1.0  0.92285  0.23781  0.30678  1.0000
  H   H1074     1.0  0.91347  0.25001  0.24816  1.0000
  H   H1075     1.0  0.92180  0.22322  0.22736  1.0000
  H   H1076     1.0  0.87248  0.24656  0.21990  1.0000
  H   H1077     1.0  0.88290  0.21956  0.19865  1.0000
  H   H1078     1.0  0.89062  0.25566  0.32908  1.0000
  H   H1079     1.0  0.88836  0.26748  0.28464  1.0000
  H   H1080     1.0  0.53380  0.10178  0.98208  1.0000
  H   H1081     1.0  0.97519  0.17451  0.46671  1.0000
  H   H1082     1.0  0.85795  0.18700  0.27677  1.0000
  H   H1083     1.0  0.85984  0.20091  0.23424  1.0000
  H   H1084     1.0  0.89175  0.17080  0.45015  1.0000
  H   H1085     1.0  0.87365  0.16539  0.20526  1.0000
  C   C615      1.0  0.94198  0.15707  0.01878  1.0000
  H   H1086     1.0  0.88479  0.25296  0.15809  1.0000
  H   H1087     1.0  0.90358  0.26816  0.18897  1.0000
  H   H1088     1.0  0.91374  0.24105  0.16775  1.0000
  H   H1089     1.0  0.84658  0.25613  0.33215  1.0000
  H   H1090     1.0  0.85849  0.28474  0.32591  1.0000
  H   H1091     1.0  0.84520  0.26976  0.28872  1.0000
  C   C616      1.0  0.66117  0.21300  0.42529  1.0000
  H   H1092     1.0  0.85589  0.14834  0.45661  1.0000
  C   C617      1.0  0.69759  0.27100  0.38160  1.0000
  C   C618      1.0  0.95083  0.26412  0.39288  1.0000
  H   H1093     1.0  0.89656  0.02693  0.16329  1.0000
  C   C619      1.0  0.80502  0.15605  0.11543  1.0000
  H   H1094     1.0  0.51866  0.17542  0.11490  1.0000
  C   C620      1.0  0.62647  0.23215  0.15411  1.0000
  C   C621      1.0  0.97485  0.31417  0.45233  1.0000
  C   C622      1.0  0.75197  0.27809  0.47060  1.0000
  H   H1095     1.0  0.87120  0.05817  0.18976  1.0000
  C   C623      1.0  0.73330  0.19029  0.11097  1.0000
  H   H1096     1.0  0.70936  0.28178  0.32877  1.0000
  H   H1097     1.0  0.92472  0.15386  0.00586  1.0000
  C   C624      1.0  0.91996  0.05018  0.13430  1.0000
  H   H1098     1.0  0.80081  0.16509  0.14113  1.0000
  H   H1099     1.0  0.88801  0.08032  0.16867  1.0000
  H   H1100     1.0  0.76311  0.15649  0.08343  1.0000
  H   H1101     1.0  0.95244  0.27037  0.36503  1.0000
  H   H1102     1.0  0.79476  0.13976  0.11571  1.0000
  H   H1103     1.0  0.97189  0.26282  0.98998  1.0000
  H   H1104     1.0  0.96209  0.22318  0.33179  1.0000
  Fe  Fe77      1.0  0.60051  0.27181  0.46618  1.0000
  H   H1105     1.0  0.90397  0.00568  0.36530  1.0000
  H   H1106     1.0  0.77057  0.22600  0.99893  1.0000
  H   H1107     1.0  0.92293  0.06930  0.13613  1.0000
  H   H1108     1.0  0.87160  0.05996  0.14170  1.0000
  H   H1109     1.0  0.54348  0.31043  0.12490  1.0000
  C   C625      1.0  0.75991  0.18753  0.11589  1.0000
  H   H1110     1.0  0.73186  0.30893  0.45462  1.0000
  H   H1111     1.0  0.51097  0.15862  0.47055  1.0000
  H   H1112     1.0  0.98597  0.19992  0.41699  1.0000
  H   H1113     1.0  0.76329  0.17789  0.14109  1.0000
  H   H1114     1.0  0.82482  0.16083  0.04737  1.0000
  H   H1115     1.0  0.68865  0.23772  0.42658  1.0000
  H   H1116     1.0  0.51485  0.16895  0.04371  1.0000
  N   N34       1.0  0.56056  0.22391  0.17903  1.0000
  C   C626      1.0  0.54802  0.23674  0.14904  1.0000
  C   C627      1.0  0.58564  0.23171  0.18052  1.0000
  C   C628      1.0  0.55937  0.19788  0.17205  1.0000
  C   C629      1.0  0.54927  0.22943  0.21452  1.0000
  C   C630      1.0  0.54564  0.25585  0.22391  1.0000
  C   C631      1.0  0.52124  0.23283  0.14562  1.0000
  C   C632      1.0  0.57311  0.18190  0.19883  1.0000
  C   C633      1.0  0.73806  0.28514  0.36552  1.0000
  H   H1117     1.0  0.91304  0.04633  0.19162  1.0000
  H   H1118     1.0  0.82676  0.12445  0.00800  1.0000
  H   H1119     1.0  0.97250  0.03433  0.09623  1.0000
  C   C634      1.0  0.57284  0.15622  0.18687  1.0000
  H   H1120     1.0  0.55577  0.23150  0.12287  1.0000
  H   H1121     1.0  0.55073  0.25594  0.15130  1.0000
  H   H1122     1.0  0.58610  0.25123  0.18068  1.0000
  H   H1123     1.0  0.59432  0.22628  0.20600  1.0000
  H   H1124     1.0  0.56534  0.19349  0.14451  1.0000
  H   H1125     1.0  0.54088  0.19223  0.17289  1.0000
  H   H1126     1.0  0.53201  0.22092  0.21648  1.0000
  H   H1127     1.0  0.56010  0.22166  0.23655  1.0000
  H   H1128     1.0  0.53347  0.26472  0.20470  1.0000
  H   H1129     1.0  0.56253  0.26501  0.22376  1.0000
  C   C635      1.0  0.53510  0.25899  0.26111  1.0000
  C   C636      1.0  0.73126  0.29224  0.46799  1.0000
  H   H1130     1.0  0.56493  0.18309  0.22559  1.0000
  H   H1131     1.0  0.59172  0.18674  0.20156  1.0000
  H   H1132     1.0  0.51792  0.21433  0.13850  1.0000
  C   C637      1.0  0.98464  0.04007  0.16300  1.0000
  C   C638      1.0  0.72188  0.18021  0.98716  1.0000
  C   C639      1.0  0.63020  0.29249  0.29981  1.0000
  H   H1133     1.0  0.95356  0.06079  0.17530  1.0000
  H   H1134     1.0  0.94504  0.14388  0.04007  1.0000
  H   H1135     1.0  0.93906  0.18883  0.27920  1.0000
  H   H1136     1.0  0.70847  0.16738  0.98374  1.0000
  H   H1137     1.0  0.50569  0.31737  0.41662  1.0000
  S   S148      1.0  0.88622  0.27258  0.46400  1.0000
  C   C640      1.0  0.95743  0.04242  0.16613  1.0000
  H   H1138     1.0  0.55453  0.15019  0.18468  1.0000
  H   H1139     1.0  0.58160  0.15384  0.16065  1.0000
  H   H1140     1.0  0.58242  0.14508  0.20668  1.0000
  H   H1141     1.0  0.51458  0.30602  0.99224  1.0000
  C   C641      1.0  0.58048  0.30355  0.13263  1.0000
  H   H1142     1.0  0.63479  0.22493  0.17874  1.0000
  C   C642      1.0  0.50954  0.03993  0.26202  1.0000
  H   H1143     1.0  0.68864  0.31747  0.40956  1.0000
  H   H1144     1.0  0.52461  0.19655  0.44938  1.0000
  C   C643      1.0  0.56957  0.11203  0.98015  1.0000
  H   H1145     1.0  0.70412  0.27331  0.40949  1.0000
  H   H1146     1.0  0.66164  0.24798  0.44628  1.0000
  H   H1147     1.0  0.50194  0.21601  0.03222  1.0000
  H   H1148     1.0  0.64271  0.29012  0.41058  1.0000
  C   C644      1.0  0.66107  0.24991  0.38775  1.0000
  H   H1149     1.0  0.49118  0.24432  0.11380  1.0000
  N   N35       1.0  0.50923  0.14460  0.00041  1.0000
  S   S149      1.0  0.85168  0.16809  0.98542  1.0000
  H   H1150     1.0  0.95043  0.21679  0.26768  1.0000
  H   H1151     1.0  0.51790  0.25040  0.26254  1.0000
  H   H1152     1.0  0.70343  0.25284  0.37378  1.0000
  C   C645      1.0  0.50621  0.16872  0.01700  1.0000
  H   H1153     1.0  0.92596  0.23814  0.37603  1.0000
  H   H1154     1.0  0.91254  0.26551  0.39084  1.0000
  H   H1155     1.0  0.57946  0.27738  0.33296  1.0000
  H   H1156     1.0  0.92278  0.01614  0.33091  1.0000
  C   C646      1.0  0.60164  0.22311  0.14942  1.0000
  C   C647      1.0  0.51012  0.24809  0.11637  1.0000
  C   C648      1.0  0.50043  0.12716  0.02683  1.0000
  N   N36       1.0  0.67100  0.27360  0.38024  1.0000
  H   H1157     1.0  0.92816  0.00577  0.15582  1.0000
  C   C649      1.0  0.87188  0.14344  0.47238  1.0000
  H   H1158     1.0  0.66923  0.26755  0.32335  1.0000
  H   H1159     1.0  0.94483  0.03709  0.07543  1.0000
  H   H1160     1.0  0.61091  0.29485  0.29627  1.0000
  H   H1161     1.0  0.94061  0.29897  0.40783  1.0000
  C   C650      1.0  0.94601  0.28168  0.02033  1.0000
  C   C651      1.0  0.96248  0.18857  0.45830  1.0000
  C   C652      1.0  0.92718  0.25264  0.39583  1.0000
  H   H1162     1.0  0.54629  0.10923  0.02462  1.0000
  C   C653      1.0  0.98630  0.30410  0.39091  1.0000
  C   C654      1.0  0.95860  0.20545  0.32087  1.0000
  C   C655      1.0  0.54500  0.11445  0.99613  1.0000
  H   H1163     1.0  0.84243  0.16474  0.12024  1.0000
  H   H1164     1.0  0.84900  0.15825  0.23236  1.0000
  H   H1165     1.0  0.92493  0.29861  0.30499  1.0000
  H   H1166     1.0  0.82773  0.11668  0.14710  1.0000
  H   H1167     1.0  0.96558  0.17818  0.40235  1.0000
  H   H1168     1.0  0.60325  0.20370  0.14809  1.0000
  C   C656      1.0  0.77112  0.17402  0.08387  1.0000
  H   H1169     1.0  0.74458  0.26660  0.36396  1.0000
  C   C657      1.0  0.57186  0.29233  0.34712  1.0000
  C   C658      1.0  0.66276  0.28077  0.34335  1.0000
  C   C659      1.0  0.83160  0.14901  0.11737  1.0000
  C   C660      1.0  0.66218  0.29050  0.40863  1.0000
  H   H1170     1.0  0.83201  0.14250  0.17467  1.0000
  H   H1171     1.0  0.55579  0.30747  0.29975  1.0000
  H   H1172     1.0  0.83738  0.13913  0.09320  1.0000
  H   H1173     1.0  0.72554  0.19952  0.13449  1.0000
  C   C661      1.0  0.88232  0.06189  0.16641  1.0000
  C   C662      1.0  0.93784  0.01088  0.13165  1.0000
  N   N37       1.0  0.94320  0.03665  0.13309  1.0000
  H   H1174     1.0  0.51281  0.03420  0.23403  1.0000
  H   H1175     1.0  0.95116  0.19449  0.34204  1.0000
  H   H1176     1.0  0.90983  0.04747  0.10907  1.0000
  H   H1177     1.0  0.95190  0.03142  0.18872  1.0000
  C   C663      1.0  0.49377  0.30534  0.43013  1.0000
  H   H1178     1.0  0.96886  0.25597  0.47255  1.0000
  H   H1179     1.0  0.66964  0.20197  0.40418  1.0000
  C   C664      1.0  0.95253  0.28511  0.41911  1.0000
  H   H1180     1.0  0.63827  0.30962  0.29484  1.0000
  C   C665      1.0  0.66929  0.23822  0.42325  1.0000
  C   C666      1.0  0.83713  0.13340  0.14947  1.0000
  H   H1181     1.0  0.92533  0.24521  0.42290  1.0000
  H   H1182     1.0  0.93095  0.27564  0.00392  1.0000
  H   H1183     1.0  0.74167  0.29215  0.39265  1.0000
  C   C667      1.0  0.60013  0.29025  0.12081  1.0000
  H   H1184     1.0  0.61708  0.29292  0.13316  1.0000
  H   H1185     1.0  0.53244  0.18513  0.98208  1.0000
  C   C668      1.0  0.56544  0.31382  0.40226  1.0000
  C   C669      1.0  0.92314  0.00074  0.23509  1.0000
  H   H1186     1.0  0.54718  0.25149  0.28177  1.0000
  H   H1187     1.0  0.64178  0.21243  0.42224  1.0000
  H   H1188     1.0  0.66535  0.23744  0.36547  1.0000
  H   H1189     1.0  0.94146  0.17480  0.03135  1.0000
  C   C670      1.0  0.71179  0.28712  0.35714  1.0000
  C   C671      1.0  0.63585  0.28412  0.33770  1.0000
  H   H1190     1.0  0.53219  0.27793  0.26717  1.0000
  H   H1191     1.0  0.51171  0.26697  0.12332  1.0000
  H   H1192     1.0  0.64157  0.25112  0.38918  1.0000
  H   H1193     1.0  0.52304  0.03139  0.27954  1.0000
  H   H1194     1.0  0.59461  0.22935  0.12342  1.0000
  H   H1195     1.0  0.72519  0.17290  0.10818  1.0000
  H   H1196     1.0  0.72896  0.20083  0.08688  1.0000
  H   H1197     1.0  0.56839  0.31576  0.43066  1.0000
  H   H1198     1.0  0.92607  0.00724  0.10843  1.0000
  C   C672      1.0  0.92426  0.31282  0.32430  1.0000
  H   H1199     1.0  0.62614  0.25160  0.15570  1.0000
  H   H1200     1.0  0.58156  0.12470  0.99284  1.0000
  H   H1201     1.0  0.51868  0.24435  0.09031  1.0000
  H   H1202     1.0  0.57690  0.09403  0.98468  1.0000
  C   C673      1.0  0.95510  0.04331  0.09896  1.0000
  H   H1203     1.0  0.97550  0.19701  0.31256  1.0000
  C   C674      1.0  0.75733  0.21292  0.99608  1.0000
  H   H1204     1.0  0.80214  0.13782  0.98396  1.0000
  H   H1205     1.0  0.49762  0.29304  0.06839  1.0000
  H   H1206     1.0  0.96440  0.25027  0.39804  1.0000
  C   C675      1.0  0.97631  0.07478  0.06499  1.0000
  H   H1207     1.0  0.96420  0.07863  0.11905  1.0000
  H   H1208     1.0  0.67196  0.25192  0.98109  1.0000
  S   S150      1.0  0.84624  0.22591  0.98832  1.0000
  H   H1209     1.0  0.96866  0.99352  0.15619  1.0000
  C   C676      1.0  0.96157  0.15484  0.99129  1.0000
  H   H1210     1.0  0.49399  0.03672  0.32900  1.0000
  H   H1211     1.0  0.94191  0.29964  0.03069  1.0000
  H   H1212     1.0  0.66617  0.20561  0.45173  1.0000
  H   H1213     1.0  0.97755  0.09401  0.06141  1.0000
  H   H1214     1.0  0.92516  0.19325  0.44799  1.0000
  H   H1215     1.0  0.54897  0.17826  0.46473  1.0000
  C   C677      1.0  0.80730  0.12604  0.00635  1.0000
  H   H1216     1.0  0.93574  0.16383  0.44701  1.0000
  C   C678      1.0  0.93685  0.18055  0.46256  1.0000
  C   C679      1.0  0.90823  0.31222  0.35274  1.0000
  H   H1217     1.0  0.97181  0.31210  0.37443  1.0000
  C   C680      1.0  0.66945  0.31624  0.40492  1.0000
  H   H1218     1.0  0.63670  0.27941  0.27978  1.0000
  H   H1219     1.0  0.51116  0.05928  0.26357  1.0000
  H   H1220     1.0  0.52407  0.22597  0.00205  1.0000
  H   H1221     1.0  0.88163  0.12928  0.45764  1.0000
  C   C681      1.0  0.50681  0.28888  0.99839  1.0000
  C   C682      1.0  0.55835  0.30929  0.32826  1.0000
  C   C683      1.0  0.53292  0.18827  0.47326  1.0000
  C   C684      1.0  0.88703  0.16491  0.47708  1.0000
  H   H1222     1.0  0.94834  0.26973  0.04343  1.0000
  C   C685      1.0  0.51541  0.18939  0.99492  1.0000
  H   H1223     1.0  0.80043  0.10840  0.00053  1.0000
  N   N38       1.0  0.97671  0.29441  0.42523  1.0000
  H   H1224     1.0  0.95556  0.20824  0.40953  1.0000
  H   H1225     1.0  0.93517  0.99821  0.36599  1.0000
  H   H1226     1.0  0.96608  0.20439  0.47444  1.0000
  H   H1227     1.0  0.51191  0.23720  0.17075  1.0000
  H   H1228     1.0  0.50317  0.28826  0.43435  1.0000
  S   S151      1.0  0.98311  0.14448  0.32324  1.0000
  C   C686      1.0  0.95906  0.99330  0.13024  1.0000
  C   C687      1.0  0.51859  0.21108  0.01856  1.0000
  H   H1229     1.0  0.98601  0.19732  0.00794  1.0000
  S   S152      1.0  0.49419  0.14058  0.15224  1.0000
  H   H1230     1.0  0.98297  0.28699  0.01594  1.0000
  H   H1231     1.0  0.97864  0.15741  0.00502  1.0000
  C   C688      1.0  0.53520  0.14011  0.99360  1.0000
  C   C689      1.0  0.98613  0.26422  0.47564  1.0000
  S   S153      1.0  0.52710  0.32147  0.22374  1.0000
  H   H1232     1.0  0.96143  0.13660  0.98056  1.0000
  H   H1233     1.0  0.96688  0.30811  0.47746  1.0000
  S   S154      1.0  0.96272  0.15118  0.78200  1.0000
  Fe  Fe78      1.0  0.87289  0.22595  0.94358  1.0000
  S   S155      1.0  0.85444  0.19811  0.91151  1.0000
  S   S156      1.0  0.89640  0.25492  0.92321  1.0000
  H   H1234     1.0  0.97988  0.20022  0.78784  1.0000
  Fe  Fe79      1.0  0.87788  0.17262  0.94165  1.0000
  S   S157      1.0  0.89993  0.14163  0.92064  1.0000
  Fe  Fe80      1.0  0.82923  0.19613  0.95844  1.0000
  S   S158      1.0  0.78969  0.18731  0.95335  1.0000
  S   S159      1.0  0.61846  0.23876  0.48642  1.0000
  S   S160      1.0  0.60796  0.18228  0.90182  1.0000
  Fe  Fe81      1.0  0.64208  0.26300  0.51728  1.0000
  H   H1235     1.0  0.64964  0.01836  0.59900  1.0000
  S   S161      1.0  0.68182  0.25321  0.51848  1.0000
  Fe  Fe82      1.0  0.59936  0.29363  0.54080  1.0000
  S   S162      1.0  0.57395  0.27216  0.50983  1.0000
  Fe  Fe83      1.0  0.59385  0.24108  0.53308  1.0000
  S   S163      1.0  0.56810  0.21412  0.55280  1.0000
  C   C690      1.0  0.66288  0.19908  0.83720  1.0000
  S   S164      1.0  0.61845  0.26276  0.56600  1.0000
  H   H1236     1.0  0.50159  0.19616  0.52857  1.0000
  Fe  Fe84      1.0  0.52495  0.11541  0.76656  1.0000
  S   S165      1.0  0.55219  0.09220  0.73971  1.0000
  S   S166      1.0  0.52627  0.12554  0.82568  1.0000
  C   C691      1.0  0.91130  0.30643  0.85310  1.0000
  S   S167      1.0  0.52087  0.09784  0.66612  1.0000
  Fe  Fe85      1.0  0.52177  0.07363  0.71418  1.0000
  S   S168      1.0  0.52372  0.03351  0.70255  1.0000
  Fe  Fe86      1.0  0.54894  0.11788  0.69427  1.0000
  S   S169      1.0  0.58094  0.13293  0.66788  1.0000
  H   H1237     1.0  0.87688  0.22089  0.76761  1.0000
  S   S170      1.0  0.52394  0.14212  0.72310  1.0000
  Fe  Fe87      1.0  0.85945  0.27631  0.50700  1.0000
  S   S171      1.0  0.86790  0.27571  0.56648  1.0000
  H   H1238     1.0  0.65720  0.17288  0.90444  1.0000
  C   C692      1.0  0.51918  0.00621  0.72496  1.0000
  C   C693      1.0  0.51312  0.00502  0.76105  1.0000
  H   H1239     1.0  0.95165  0.18947  0.97269  1.0000
  H   H1240     1.0  0.54639  0.28572  0.70786  1.0000
  H   H1241     1.0  0.90461  0.30422  0.53724  1.0000
  C   C694      1.0  0.88860  0.29435  0.58640  1.0000
  C   C695      1.0  0.98627  0.15147  0.92335  1.0000
  H   H1242     1.0  0.90189  0.20602  0.49626  1.0000
  S   S172      1.0  0.83631  0.24865  0.48331  1.0000
  H   H1243     1.0  0.61999  0.27256  0.65300  1.0000
  C   C696      1.0  0.54563  0.30331  0.59699  1.0000
  H   H1244     1.0  0.51523  0.28661  0.61764  1.0000
  H   H1245     1.0  0.55223  0.28774  0.58327  1.0000
  C   C697      1.0  0.57249  0.19166  0.58485  1.0000
  C   C698      1.0  0.55295  0.17925  0.59600  1.0000
  C   C699      1.0  0.55526  0.16184  0.62227  1.0000
  C   C700      1.0  0.57734  0.15582  0.63649  1.0000
  C   C701      1.0  0.59698  0.16801  0.62515  1.0000
  C   C702      1.0  0.59453  0.18611  0.59981  1.0000
  H   H1246     1.0  0.53588  0.18314  0.58437  1.0000
  H   H1247     1.0  0.54001  0.15281  0.63121  1.0000
  H   H1248     1.0  0.61415  0.16351  0.63608  1.0000
  H   H1249     1.0  0.60973  0.19549  0.59145  1.0000
  C   C703      1.0  0.58532  0.16634  0.88082  1.0000
  C   C704      1.0  0.58630  0.16156  0.84393  1.0000
  C   C705      1.0  0.56841  0.14906  0.82659  1.0000
  C   C706      1.0  0.54933  0.14129  0.84604  1.0000
  C   C707      1.0  0.54836  0.14620  0.88287  1.0000
  C   C708      1.0  0.56626  0.15863  0.90016  1.0000
  H   H1250     1.0  0.60099  0.16743  0.82872  1.0000
  H   H1251     1.0  0.56938  0.14540  0.79825  1.0000
  H   H1252     1.0  0.53367  0.14035  0.89802  1.0000
  H   H1253     1.0  0.56540  0.16247  0.92836  1.0000
  H   H1254     1.0  0.57093  0.17162  0.73507  1.0000
  C   C709      1.0  0.58590  0.01236  0.69783  1.0000
  C   C710      1.0  0.88906  0.29702  0.62373  1.0000
  C   C711      1.0  0.53298  0.27051  0.95057  1.0000
  H   H1255     1.0  0.76945  0.22802  0.87818  1.0000
  H   H1256     1.0  0.55867  0.05091  0.57507  1.0000
  C   C712      1.0  0.93244  0.22167  0.51710  1.0000
  C   C713      1.0  0.68786  0.22148  0.92740  1.0000
  C   C714      1.0  0.89341  0.27573  0.88826  1.0000
  C   C715      1.0  0.91274  0.28946  0.88020  1.0000
  C   C716      1.0  0.90941  0.15919  0.49973  1.0000
  H   H1257     1.0  0.88266  0.30923  0.72216  1.0000
  S   S173      1.0  0.62492  0.29592  0.49503  1.0000
  C   C717      1.0  0.87260  0.27906  0.86863  1.0000
  H   H1258     1.0  0.92894  0.28695  0.89500  1.0000
  H   H1259     1.0  0.66753  0.25381  0.91478  1.0000
  H   H1260     1.0  0.49331  0.16773  0.56881  1.0000
  H   H1261     1.0  0.87673  0.28770  0.63966  1.0000
  C   C718      1.0  0.94574  0.14791  0.82091  1.0000
  C   C719      1.0  0.92968  0.16604  0.83048  1.0000
  C   C720      1.0  0.91561  0.16430  0.86096  1.0000
  C   C721      1.0  0.91726  0.14423  0.88200  1.0000
  C   C722      1.0  0.93327  0.12602  0.87246  1.0000
  C   C723      1.0  0.94763  0.12792  0.84220  1.0000
  H   H1262     1.0  0.92824  0.18158  0.81439  1.0000
  H   H1263     1.0  0.90346  0.17843  0.86828  1.0000
  H   H1264     1.0  0.93459  0.11039  0.88856  1.0000
  H   H1265     1.0  0.95983  0.11377  0.83503  1.0000
  N   N39       1.0  0.68932  0.20923  0.89164  1.0000
  H   H1266     1.0  0.56702  0.28346  0.65981  1.0000
  H   H1267     1.0  0.64130  0.22532  0.80894  1.0000
  C   C724      1.0  0.52473  0.30267  0.61663  1.0000
  C   C725      1.0  0.60451  0.28432  0.65852  1.0000
  C   C726      1.0  0.53279  0.27225  0.70807  1.0000
  H   H1268     1.0  0.60428  0.29878  0.63885  1.0000
  H   H1269     1.0  0.73304  0.23113  0.91230  1.0000
  C   C727      1.0  0.74424  0.17636  0.97150  1.0000
  H   H1270     1.0  0.53828  0.20223  0.49222  1.0000
  C   C728      1.0  0.50481  0.12355  0.57936  1.0000
  C   C729      1.0  0.95746  0.14444  0.51931  1.0000
  H   H1271     1.0  0.97335  0.30548  0.88797  1.0000
  H   H1272     1.0  0.97422  0.07229  0.64901  1.0000
  H   H1273     1.0  0.50823  0.29708  0.73295  1.0000
  H   H1274     1.0  0.85754  0.26873  0.87457  1.0000
  C   C730      1.0  0.51599  0.17176  0.49095  1.0000
  C   C731      1.0  0.98128  0.31545  0.91056  1.0000
  H   H1275     1.0  0.70475  0.23624  0.85972  1.0000
  C   C732      1.0  0.54573  0.23679  0.64981  1.0000
  C   C733      1.0  0.52223  0.22379  0.64951  1.0000
  H   H1276     1.0  0.73946  0.20146  0.89813  1.0000
  C   C734      1.0  0.50766  0.27447  0.96298  1.0000
  H   H1277     1.0  0.49277  0.21731  0.61471  1.0000
  C   C735      1.0  0.73352  0.21909  0.88887  1.0000
  N   N40       1.0  0.55892  0.23710  0.68492  1.0000
  H   H1278     1.0  0.52265  0.27294  0.68274  1.0000
  H   H1279     1.0  0.91773  0.23668  0.56620  1.0000
  H   H1280     1.0  0.74778  0.24580  0.85461  1.0000
  H   H1281     1.0  0.85301  0.21570  0.82229  1.0000
  H   H1282     1.0  0.58810  0.25603  0.70758  1.0000
  C   C736      1.0  0.58032  0.20818  0.72851  1.0000
  H   H1283     1.0  0.56966  0.01183  0.68135  1.0000
  H   H1284     1.0  0.94531  0.13131  0.52978  1.0000
  C   C737      1.0  0.70917  0.21833  0.86979  1.0000
  H   H1285     1.0  0.54132  0.28753  0.94573  1.0000
  H   H1286     1.0  0.59950  0.00088  0.68505  1.0000
  H   H1287     1.0  0.96255  0.08549  0.60880  1.0000
  H   H1288     1.0  0.72877  0.23294  0.51658  1.0000
  C   C738      1.0  0.68595  0.25903  0.96420  1.0000
  H   H1289     1.0  0.49101  0.28133  0.54322  1.0000
  H   H1290     1.0  0.56712  0.01252  0.74838  1.0000
  C   C739      1.0  0.95760  0.17256  0.96052  1.0000
  H   H1291     1.0  0.52538  0.20461  0.65253  1.0000
  H   H1292     1.0  0.98286  0.25913  0.81414  1.0000
  H   H1293     1.0  0.97948  0.21899  0.97503  1.0000
  C   C740      1.0  0.96558  0.29760  0.96547  1.0000
  C   C741      1.0  0.58173  0.24982  0.68104  1.0000
  H   H1294     1.0  0.61025  0.03646  0.72002  1.0000
  C   C742      1.0  0.91664  0.20012  0.51403  1.0000
  H   H1295     1.0  0.53751  0.06250  0.60695  1.0000
  C   C743      1.0  0.69390  0.18335  0.89752  1.0000
  C   C744      1.0  0.67453  0.17039  0.91754  1.0000
  C   C745      1.0  0.68485  0.24859  0.92651  1.0000
  H   H1296     1.0  0.97642  0.28949  0.82520  1.0000
  C   C746      1.0  0.68003  0.14402  0.91877  1.0000
  H   H1297     1.0  0.71022  0.18040  0.91343  1.0000
  H   H1298     1.0  0.69726  0.17409  0.87170  1.0000
  H   H1299     1.0  0.66145  0.18019  0.84337  1.0000
  H   H1300     1.0  0.70355  0.21689  0.94387  1.0000
  C   C747      1.0  0.89040  0.31000  0.83380  1.0000
  Fe  Fe88      1.0  0.49559  0.12088  0.69735  1.0000
  H   H1301     1.0  0.90869  0.19712  0.54064  1.0000
  H   H1302     1.0  0.63429  0.11401  0.68527  1.0000
  H   H1303     1.0  0.66475  0.23251  0.86411  1.0000
  H   H1304     1.0  0.69717  0.14038  0.93229  1.0000
  H   H1305     1.0  0.66613  0.13531  0.93391  1.0000
  H   H1306     1.0  0.68048  0.13645  0.89135  1.0000
  N   N41       1.0  0.59974  0.05074  0.66852  1.0000
  C   C748      1.0  0.60534  0.07562  0.67885  1.0000
  C   C749      1.0  0.57795  0.05046  0.64504  1.0000
  C   C750      1.0  0.59445  0.03784  0.70248  1.0000
  C   C751      1.0  0.62016  0.03810  0.65064  1.0000
  C   C752      1.0  0.63010  0.04974  0.61710  1.0000
  C   C753      1.0  0.62694  0.07879  0.70377  1.0000
  C   C754      1.0  0.94705  0.16959  0.52599  1.0000
  C   C755      1.0  0.57384  0.07112  0.61876  1.0000
  C   C756      1.0  0.55391  0.06617  0.59244  1.0000
  H   H1307     1.0  0.59690  0.21782  0.72725  1.0000
  C   C757      1.0  0.63120  0.10478  0.71071  1.0000
  C   C758      1.0  0.94765  0.22384  0.87633  1.0000
  H   H1308     1.0  0.58991  0.08415  0.69213  1.0000
  H   H1309     1.0  0.60827  0.08655  0.65509  1.0000
  H   H1310     1.0  0.57735  0.03371  0.62957  1.0000
  H   H1311     1.0  0.56186  0.05089  0.66178  1.0000
  H   H1312     1.0  0.51057  0.02107  0.77632  1.0000
  H   H1313     1.0  0.50090  0.26689  0.73840  1.0000
  H   H1314     1.0  0.63480  0.03509  0.67010  1.0000
  H   H1315     1.0  0.61513  0.02028  0.64179  1.0000
  H   H1316     1.0  0.63423  0.06836  0.62195  1.0000
  H   H1317     1.0  0.61735  0.04849  0.59468  1.0000
  H   H1318     1.0  0.62422  0.07074  0.73016  1.0000
  H   H1319     1.0  0.64307  0.07093  0.69165  1.0000
  H   H1320     1.0  0.58079  0.04785  0.71806  1.0000
  N   N42       1.0  0.98678  0.29939  0.94176  1.0000
  H   H1321     1.0  0.56877  0.08730  0.63391  1.0000
  H   H1322     1.0  0.58961  0.07495  0.60320  1.0000
  H   H1323     1.0  0.76644  0.24557  0.49093  1.0000
  C   C759      1.0  0.65277  0.03712  0.60504  1.0000
  C   C760      1.0  0.97823  0.08406  0.62654  1.0000
  H   H1324     1.0  0.59789  0.17558  0.71102  1.0000
  C   C761      1.0  0.58692  0.18223  0.73353  1.0000
  H   H1325     1.0  0.54170  0.25478  0.64023  1.0000
  H   H1326     1.0  0.61582  0.11327  0.72423  1.0000
  H   H1327     1.0  0.64686  0.10666  0.72824  1.0000
  H   H1328     1.0  0.55055  0.08173  0.57533  1.0000
  C   C762      1.0  0.49546  0.14445  0.96583  1.0000
  C   C763      1.0  0.75231  0.22774  0.86379  1.0000
  C   C764      1.0  0.97013  0.18926  0.90380  1.0000
  H   H1329     1.0  0.97112  0.14176  0.91229  1.0000
  C   C765      1.0  0.49219  0.13248  0.54578  1.0000
  C   C766      1.0  0.75083  0.25674  0.48858  1.0000
  S   S174      1.0  0.89707  0.20009  0.97193  1.0000
  H   H1330     1.0  0.98499  0.19200  0.88543  1.0000
  H   H1331     1.0  0.55512  0.24952  0.73941  1.0000
  H   H1332     1.0  0.59710  0.17987  0.75872  1.0000
  H   H1333     1.0  0.63769  0.19552  0.79378  1.0000
  H   H1334     1.0  0.74763  0.16060  0.95583  1.0000
  H   H1335     1.0  0.94494  0.21406  0.93073  1.0000
  H   H1336     1.0  0.65925  0.04544  0.58047  1.0000
  C   C767      1.0  0.58181  0.27089  0.65508  1.0000
  H   H1337     1.0  0.53022  0.23560  0.72222  1.0000
  C   C768      1.0  0.51504  0.29619  0.50486  1.0000
  N   N43       1.0  0.97826  0.17561  0.93622  1.0000
  H   H1338     1.0  0.97614  0.26779  0.91476  1.0000
  H   H1339     1.0  0.52132  0.13303  0.58354  1.0000
  C   C769      1.0  0.56503  0.21190  0.69435  1.0000
  H   H1340     1.0  0.54351  0.26062  0.97089  1.0000
  N   N44       1.0  0.91730  0.24829  0.76244  1.0000
  C   C770      1.0  0.91691  0.23133  0.73119  1.0000
  C   C771      1.0  0.90563  0.27154  0.75232  1.0000
  C   C772      1.0  0.94278  0.25259  0.77130  1.0000
  C   C773      1.0  0.90610  0.23849  0.79519  1.0000
  C   C774      1.0  0.88007  0.23198  0.79147  1.0000
  C   C775      1.0  0.92771  0.20642  0.73792  1.0000
  C   C776      1.0  0.94741  0.27166  0.80019  1.0000
  C   C777      1.0  0.88439  0.27104  0.72604  1.0000
  C   C778      1.0  0.49921  0.27641  0.51738  1.0000
  C   C779      1.0  0.92013  0.24161  0.53789  1.0000
  C   C780      1.0  0.92670  0.19119  0.70421  1.0000
  C   C781      1.0  0.97367  0.27544  0.80501  1.0000
  H   H1341     1.0  0.92609  0.23899  0.70807  1.0000
  H   H1342     1.0  0.89878  0.22852  0.72150  1.0000
  H   H1343     1.0  0.89996  0.28132  0.77673  1.0000
  H   H1344     1.0  0.91839  0.28302  0.73918  1.0000
  H   H1345     1.0  0.95225  0.25761  0.74672  1.0000
  H   H1346     1.0  0.95174  0.23634  0.78129  1.0000
  H   H1347     1.0  0.91643  0.22297  0.80506  1.0000
  H   H1348     1.0  0.90650  0.25142  0.81758  1.0000
  H   H1349     1.0  0.50506  0.13158  0.52388  1.0000
  H   H1350     1.0  0.86888  0.24825  0.78999  1.0000
  H   H1351     1.0  0.94640  0.20695  0.74611  1.0000
  H   H1352     1.0  0.91778  0.19743  0.75878  1.0000
  H   H1353     1.0  0.94068  0.26636  0.82641  1.0000
  H   H1354     1.0  0.93902  0.28878  0.79305  1.0000
  H   H1355     1.0  0.89086  0.26759  0.69851  1.0000
  H   H1356     1.0  0.87186  0.25733  0.73246  1.0000
  H   H1357     1.0  0.68338  0.27838  0.96307  1.0000
  H   H1358     1.0  0.90263  0.24587  0.52601  1.0000
  H   H1359     1.0  0.98184  0.10183  0.63723  1.0000
  H   H1360     1.0  0.86144  0.29721  0.75177  1.0000
  C   C782      1.0  0.58059  0.00164  0.73401  1.0000
  C   C783      1.0  0.87111  0.29617  0.84165  1.0000
  H   H1361     1.0  0.93451  0.17350  0.70997  1.0000
  H   H1362     1.0  0.90823  0.18910  0.69529  1.0000
  H   H1363     1.0  0.93685  0.19904  0.68241  1.0000
  H   H1364     1.0  0.97949  0.14420  0.56742  1.0000
  C   C784      1.0  0.70984  0.28519  0.48282  1.0000
  H   H1365     1.0  0.50003  0.25696  0.96604  1.0000
  H   H1366     1.0  0.96032  0.22354  0.85402  1.0000
  H   H1367     1.0  0.57432  0.20299  0.67167  1.0000
  Fe  Fe89      1.0  0.61094  0.18752  0.96217  1.0000
  H   H1368     1.0  0.93216  0.21354  0.86861  1.0000
  H   H1369     1.0  0.52598  0.28946  0.48231  1.0000
  C   C785      1.0  0.66647  0.21374  0.87182  1.0000
  H   H1370     1.0  0.67317  0.17682  0.94548  1.0000
  H   H1371     1.0  0.58052  0.26446  0.62704  1.0000
  H   H1372     1.0  0.51243  0.11472  0.93760  1.0000
  H   H1373     1.0  0.50931  0.10456  0.57635  1.0000
  H   H1374     1.0  0.57055  0.21417  0.75258  1.0000
  H   H1375     1.0  0.55709  0.22868  0.62875  1.0000
  H   H1376     1.0  0.71175  0.20735  0.84536  1.0000
  H   H1377     1.0  0.87598  0.22819  0.84906  1.0000
  H   H1378     1.0  0.59583  0.23755  0.67084  1.0000
  H   H1379     1.0  0.67275  0.21521  0.94282  1.0000
  H   H1380     1.0  0.98143  0.28108  0.77958  1.0000
  H   H1381     1.0  0.54892  0.20182  0.69866  1.0000
  H   H1382     1.0  0.65121  0.21090  0.88952  1.0000
  H   H1383     1.0  0.60621  0.29210  0.68567  1.0000
  H   H1384     1.0  0.98524  0.27708  0.49802  1.0000
  H   H1385     1.0  0.93076  0.25760  0.53722  1.0000
  C   C786      1.0  0.54429  0.24770  0.71474  1.0000
  H   H1386     1.0  0.95728  0.17885  0.88839  1.0000
  H   H1387     1.0  0.94025  0.17003  0.55383  1.0000
  C   C787      1.0  0.70858  0.26360  0.50008  1.0000
  C   C788      1.0  0.95892  0.21398  0.91041  1.0000
  H   H1388     1.0  0.50258  0.19404  0.97342  1.0000
  C   C789      1.0  0.72933  0.24958  0.50304  1.0000
  C   C790      1.0  0.51364  0.25374  0.52350  1.0000
  C   C791      1.0  0.49458  0.12066  0.94578  1.0000
  H   H1389     1.0  0.62489  0.20521  0.83535  1.0000
  H   H1390     1.0  0.90508  0.31425  0.66913  1.0000
  H   H1391     1.0  0.94148  0.24223  0.88123  1.0000
  H   H1392     1.0  0.94925  0.21766  0.53107  1.0000
  H   H1393     1.0  0.69879  0.25665  0.91075  1.0000
  C   C792      1.0  0.90469  0.30633  0.56596  1.0000
  C   C793      1.0  0.49447  0.18558  0.50613  1.0000
  H   H1394     1.0  0.97272  0.22611  0.91889  1.0000
  H   H1395     1.0  0.52715  0.25633  0.54467  1.0000
  H   H1396     1.0  0.96178  0.18181  0.52653  1.0000
  H   H1397     1.0  0.52771  0.29893  0.52709  1.0000
  C   C794      1.0  0.64030  0.20683  0.81770  1.0000
  H   H1398     1.0  0.53987  0.14680  0.96696  1.0000
  H   H1399     1.0  0.95977  0.31499  0.97613  1.0000
  H   H1400     1.0  0.52247  0.24778  0.49854  1.0000
  S   S175      1.0  0.49430  0.09570  0.74358  1.0000
  H   H1401     1.0  0.56885  0.11520  0.95094  1.0000
  C   C795      1.0  0.87221  0.21840  0.82397  1.0000
  H   H1402     1.0  0.51050  0.23022  0.67116  1.0000
  H   H1403     1.0  0.98744  0.12215  0.53456  1.0000
  H   H1404     1.0  0.67766  0.20105  0.81854  1.0000
  H   H1405     1.0  0.88133  0.20094  0.82486  1.0000
  H   H1406     1.0  0.50422  0.24627  0.61056  1.0000
  H   H1407     1.0  0.66659  0.03834  0.62605  1.0000
  H   H1408     1.0  0.75427  0.21583  0.84030  1.0000
  C   C796      1.0  0.87069  0.29450  0.72601  1.0000
  H   H1409     1.0  0.50295  0.15699  0.94673  1.0000
  H   H1410     1.0  0.85485  0.29880  0.82687  1.0000
  H   H1411     1.0  0.52577  0.16287  0.51302  1.0000
  H   H1412     1.0  0.95993  0.14080  0.49041  1.0000
  C   C797      1.0  0.98110  0.14062  0.53831  1.0000
  C   C798      1.0  0.76221  0.19264  0.97574  1.0000
  H   H1413     1.0  0.53322  0.26017  0.92530  1.0000
  N   N45       1.0  0.92800  0.17758  0.50015  1.0000
  C   C799      1.0  0.90503  0.31203  0.64047  1.0000
  H   H1414     1.0  0.95037  0.29139  0.94945  1.0000
  H   H1415     1.0  0.93601  0.22831  0.48998  1.0000
  H   H1416     1.0  0.90361  0.15554  0.52744  1.0000
  S   S176      1.0  0.49098  0.31959  0.66232  1.0000
  C   C800      1.0  0.51566  0.27914  0.73784  1.0000
  C   C801      1.0  0.50904  0.22746  0.61430  1.0000
  H   H1417     1.0  0.85742  0.29470  0.70413  1.0000
  H   H1418     1.0  0.49791  0.28392  0.94145  1.0000
  H   H1419     1.0  0.49362  0.12605  0.60326  1.0000
  H   H1420     1.0  0.50194  0.23980  0.53219  1.0000
  N   N46       1.0  0.50282  0.31911  0.49520  1.0000
  H   H1421     1.0  0.52476  0.27915  0.76419  1.0000
  H   H1422     1.0  0.92627  0.31692  0.84731  1.0000
  H   H1423     1.0  0.70330  0.25493  0.97681  1.0000
  H   H1424     1.0  0.94216  0.16657  0.94477  1.0000
  H   H1425     1.0  0.51994  0.22136  0.59145  1.0000
  H   H1426     1.0  0.59674  0.00020  0.75075  1.0000
  H   H1427     1.0  0.69441  0.29662  0.48131  1.0000
  C   C802      1.0  0.92072  0.32126  0.58275  1.0000
  H   H1428     1.0  0.86639  0.13684  0.49872  1.0000
  S   S177      1.0  0.84029  0.30637  0.48034  1.0000
  H   H1429     1.0  0.87596  0.17882  0.49013  1.0000
  H   H1430     1.0  0.91674  0.14228  0.48894  1.0000
  Fe  Fe90      1.0  0.55304  0.60958  0.28356  1.0000
  H   H1431     1.0  0.74358  0.63454  0.10222  1.0000
  S   S178      1.0  0.58108  0.62125  0.32310  1.0000
  Fe  Fe91      1.0  0.52543  0.56643  0.25736  1.0000
  C   C803      1.0  0.51566  0.63689  0.06013  1.0000
  S   S179      1.0  0.51954  0.52773  0.27216  1.0000
  Fe  Fe92      1.0  0.53953  0.60475  0.20460  1.0000
  S   S180      1.0  0.55316  0.60669  0.14719  1.0000
  H   H1432     1.0  0.97961  0.36168  0.47141  1.0000
  S   S181      1.0  0.56019  0.58116  0.24244  1.0000
  S   S182      1.0  0.52005  0.59320  0.30197  1.0000
  Fe  Fe93      1.0  0.52316  0.38884  0.20584  1.0000
  H   H1433     1.0  0.52832  0.59964  0.39709  1.0000
  S   S183      1.0  0.52264  0.42799  0.19058  1.0000
  Fe  Fe94      1.0  0.55167  0.34258  0.19193  1.0000
  S   S184      1.0  0.50481  0.58849  0.21747  1.0000
  H   H1434     1.0  0.96448  0.55207  0.22160  1.0000
  Fe  Fe95      1.0  0.52708  0.35125  0.26319  1.0000
  S   S185      1.0  0.53007  0.34969  0.32388  1.0000
  S   S186      1.0  0.52339  0.36178  0.16110  1.0000
  S   S187      1.0  0.55401  0.37121  0.23359  1.0000
  C   C804      1.0  0.66872  0.65117  0.11930  1.0000
  H   H1435     1.0  0.50497  0.32941  0.10662  1.0000
  H   H1436     1.0  0.52368  0.56297  0.36510  1.0000
  C   C805      1.0  0.95879  0.47853  0.20020  1.0000
  H   H1437     1.0  0.93471  0.60583  0.08069  1.0000
  C   C806      1.0  0.49913  0.63703  0.38863  1.0000
  C   C807      1.0  0.56126  0.65104  0.45409  1.0000
  H   H1438     1.0  0.57043  0.46878  0.23833  1.0000
  H   H1439     1.0  0.51674  0.32672  0.04244  1.0000
  C   C808      1.0  0.93800  0.35019  0.34532  1.0000
  C   C809      1.0  0.92165  0.34978  0.37336  1.0000
  C   C810      1.0  0.54621  0.63365  0.43360  1.0000
  H   H1440     1.0  0.55017  0.62337  0.02030  1.0000
  H   H1441     1.0  0.55446  0.61589  0.43706  1.0000
  H   H1442     1.0  0.94924  0.36499  0.34250  1.0000
  H   H1443     1.0  0.92056  0.36430  0.39213  1.0000
  C   C811      1.0  0.88318  0.50612  0.20722  1.0000
  H   H1444     1.0  0.61235  0.43508  0.20114  1.0000
  H   H1445     1.0  0.56434  0.35461  0.46726  1.0000
  H   H1446     1.0  0.57723  0.52479  0.29008  1.0000
  H   H1447     1.0  0.62862  0.47055  0.30064  1.0000
  C   C812      1.0  0.61620  0.43798  0.27697  1.0000
  C   C813      1.0  0.93245  0.61963  0.10049  1.0000
  C   C814      1.0  0.94842  0.62101  0.12940  1.0000
  H   H1448     1.0  0.64251  0.58460  0.03434  1.0000
  H   H1449     1.0  0.90922  0.47938  0.21822  1.0000
  S   S188      1.0  0.95831  0.33206  0.28312  1.0000
  H   H1450     1.0  0.62376  0.61060  0.03461  1.0000
  H   H1451     1.0  0.96286  0.60834  0.13176  1.0000
  N   N47       1.0  0.95174  0.50440  0.20040  1.0000
  H   H1452     1.0  0.91139  0.50576  0.24521  1.0000
  H   H1453     1.0  0.98044  0.51036  0.08197  1.0000
  C   C815      1.0  0.52661  0.47609  0.19516  1.0000
  H   H1454     1.0  0.62718  0.44183  0.25352  1.0000
  H   H1455     1.0  0.65103  0.60998  0.08605  1.0000
  H   H1456     1.0  0.49489  0.61797  0.02175  1.0000
  H   H1457     1.0  0.94097  0.33160  0.43887  1.0000
  H   H1458     1.0  0.96174  0.42982  0.25662  1.0000
  H   H1459     1.0  0.53264  0.60153  0.00021  1.0000
  C   C816      1.0  0.98102  0.63129  0.41932  1.0000
  C   C817      1.0  0.50738  0.55996  0.38020  1.0000
  C   C818      1.0  0.50371  0.63515  0.02282  1.0000
  H   H1460     1.0  0.97100  0.47128  0.25494  1.0000
  H   H1461     1.0  0.57855  0.60890  0.08169  1.0000
  C   C819      1.0  0.95834  0.55074  0.27762  1.0000
  H   H1462     1.0  0.51530  0.44159  0.26590  1.0000
  C   C820      1.0  0.52109  0.50021  0.24883  1.0000
  C   C821      1.0  0.52592  0.49831  0.21232  1.0000
  H   H1463     1.0  0.59520  0.41696  0.14734  1.0000
  C   C822      1.0  0.52276  0.45539  0.21419  1.0000
  C   C823      1.0  0.51834  0.45724  0.25080  1.0000
  C   C824      1.0  0.96586  0.51632  0.17225  1.0000
  H   H1464     1.0  0.94680  0.50791  0.12247  1.0000
  H   H1465     1.0  0.54681  0.63791  0.40482  1.0000
  H   H1466     1.0  0.66273  0.35038  0.42950  1.0000
  H   H1467     1.0  0.97748  0.47602  0.19211  1.0000
  H   H1468     1.0  0.92211  0.49909  0.16516  1.0000
  Fe  Fe96      1.0  0.49837  0.34161  0.19428  1.0000
  H   H1469     1.0  0.97703  0.54683  0.28472  1.0000
  H   H1470     1.0  0.59525  0.40907  0.32626  1.0000
  C   C825      1.0  0.57506  0.43767  0.29982  1.0000
  H   H1471     1.0  0.94686  0.54218  0.29709  1.0000
  H   H1472     1.0  0.88091  0.52554  0.20735  1.0000
  C   C826      1.0  0.53971  0.61930  0.99597  1.0000
  H   H1473     1.0  0.54380  0.34548  0.39761  1.0000
  C   C827      1.0  0.65800  0.61490  0.05970  1.0000
  C   C828      1.0  0.58117  0.48689  0.28509  1.0000
  C   C829      1.0  0.58884  0.41218  0.17415  1.0000
  H   H1474     1.0  0.65059  0.42399  0.32742  1.0000
  H   H1475     1.0  0.57095  0.51366  0.24608  1.0000
  S   S189      1.0  0.53486  0.63399  0.24490  1.0000
  H   H1476     1.0  0.59007  0.40809  0.24417  1.0000
  C   C830      1.0  0.95733  0.46513  0.23601  1.0000
  S   S190      1.0  0.96515  0.64168  0.19199  1.0000
  C   C831      1.0  0.57847  0.64903  0.34442  1.0000
  C   C832      1.0  0.95305  0.54227  0.23964  1.0000
  H   H1477     1.0  0.61590  0.45116  0.33275  1.0000
  C   C833      1.0  0.58386  0.42635  0.23835  1.0000
  H   H1478     1.0  0.87883  0.49920  0.18021  1.0000
  C   C834      1.0  0.52059  0.63395  0.44752  1.0000
  C   C835      1.0  0.58156  0.64548  0.06857  1.0000
  C   C836      1.0  0.91360  0.63601  0.09697  1.0000
  H   H1479     1.0  0.66320  0.44315  0.29489  1.0000
  S   S191      1.0  0.89366  0.63357  0.06054  1.0000
  N   N48       1.0  0.50284  0.62321  0.42260  1.0000
  H   H1480     1.0  0.52890  0.51401  0.19722  1.0000
  H   H1481     1.0  0.63788  0.33156  0.42950  1.0000
  H   H1482     1.0  0.59830  0.39580  0.18260  1.0000
  H   H1483     1.0  0.65233  0.62081  0.17178  1.0000
  C   C837      1.0  0.96130  0.35569  0.46892  1.0000
  C   C838      1.0  0.49520  0.58318  0.39113  1.0000
  H   H1484     1.0  0.57979  0.64898  0.44537  1.0000
  H   H1485     1.0  0.67170  0.64184  0.19205  1.0000
  H   H1486     1.0  0.50619  0.35754  0.08499  1.0000
  H   H1487     1.0  0.95511  0.57002  0.27949  1.0000
  H   H1488     1.0  0.56199  0.39101  0.35572  1.0000
  C   C839      1.0  0.67092  0.62591  0.17483  1.0000
  H   H1489     1.0  0.56313  0.48511  0.29548  1.0000
  C   C840      1.0  0.49672  0.34084  0.08589  1.0000
  C   C841      1.0  0.95974  0.33603  0.44107  1.0000
  H   H1490     1.0  0.96546  0.62334  0.43147  1.0000
  H   H1491     1.0  0.51200  0.63117  0.36786  1.0000
  C   C842      1.0  0.65774  0.64191  0.05634  1.0000
  H   H1492     1.0  0.94011  0.46774  0.24903  1.0000
  H   H1493     1.0  0.94790  0.43128  0.21318  1.0000
  H   H1494     1.0  0.68084  0.61138  0.18829  1.0000
  H   H1495     1.0  0.55634  0.44099  0.29216  1.0000
  H   H1496     1.0  0.97919  0.43530  0.21803  1.0000
  H   H1497     1.0  0.53004  0.47499  0.16683  1.0000
  H   H1498     1.0  0.66474  0.32335  0.37832  1.0000
  C   C843      1.0  0.58274  0.51151  0.26967  1.0000
  C   C844      1.0  0.91065  0.65352  0.12297  1.0000
  H   H1499     1.0  0.64824  0.60812  0.00413  1.0000
  C   C845      1.0  0.92612  0.50801  0.19093  1.0000
  C   C846      1.0  0.94556  0.63874  0.15522  1.0000
  C   C847      1.0  0.74286  0.65048  0.08541  1.0000
  N   N49       1.0  0.59056  0.44276  0.26851  1.0000
  H   H1500     1.0  0.94844  0.46891  0.17972  1.0000
  S   S192      1.0  0.49589  0.36991  0.23702  1.0000
  H   H1501     1.0  0.60103  0.51493  0.26168  1.0000
  C   C848      1.0  0.90676  0.33077  0.37739  1.0000
  H   H1502     1.0  0.92190  0.52691  0.18612  1.0000
  H   H1503     1.0  0.51701  0.58894  0.43780  1.0000
  H   H1504     1.0  0.59040  0.64195  0.04363  1.0000
  H   H1505     1.0  0.94857  0.50714  0.25815  1.0000
  C   C849      1.0  0.59323  0.43216  0.20068  1.0000
  H   H1506     1.0  0.97684  0.53709  0.10772  1.0000
  H   H1507     1.0  0.96023  0.53508  0.16958  1.0000
  H   H1508     1.0  0.57816  0.44978  0.32255  1.0000
  H   H1509     1.0  0.56282  0.42174  0.36735  1.0000
  H   H1510     1.0  0.51556  0.65233  0.45452  1.0000
  C   C850      1.0  0.57737  0.41249  0.31514  1.0000
  H   H1511     1.0  0.66222  0.32630  0.46015  1.0000
  C   C851      1.0  0.64215  0.60397  0.03138  1.0000
  H   H1512     1.0  0.57376  0.39901  0.29453  1.0000
  H   H1513     1.0  0.59330  0.48568  0.30818  1.0000
  C   C852      1.0  0.51200  0.59875  0.41313  1.0000
  C   C853      1.0  0.62676  0.45198  0.30845  1.0000
  C   C854      1.0  0.95165  0.64653  0.98787  1.0000
  H   H1514     1.0  0.58416  0.44817  0.19004  1.0000
  H   H1515     1.0  0.93443  0.54700  0.23357  1.0000
  S   S193      1.0  0.58378  0.32414  0.16790  1.0000
  H   H1516     1.0  0.60111  0.47335  0.23951  1.0000
  H   H1517     1.0  0.51359  0.48063  0.29609  1.0000
  S   S194      1.0  0.88681  0.33104  0.41365  1.0000
  H   H1518     1.0  0.94983  0.37081  0.46061  1.0000
  C   C855      1.0  0.68165  0.63035  0.13836  1.0000
  C   C856      1.0  0.58621  0.46773  0.25612  1.0000
  H   H1519     1.0  0.70321  0.62906  0.07787  1.0000
  H   H1520     1.0  0.54155  0.41141  0.33496  1.0000
  C   C857      1.0  0.55985  0.40910  0.34515  1.0000
  H   H1521     1.0  0.61956  0.41895  0.28194  1.0000
  C   C858      1.0  0.54800  0.32844  0.34638  1.0000
  H   H1522     1.0  0.67586  0.60702  0.05619  1.0000
  H   H1523     1.0  0.56440  0.42569  0.23576  1.0000
  C   C859      1.0  0.96177  0.43880  0.23044  1.0000
  H   H1524     1.0  0.56979  0.40881  0.17194  1.0000
  C   C860      1.0  0.51732  0.47946  0.26785  1.0000
  H   H1525     1.0  0.65879  0.45317  0.34017  1.0000
  C   C861      1.0  0.57484  0.62679  0.09025  1.0000
  H   H1526     1.0  0.52512  0.62007  0.06640  1.0000
  Fe  Fe97      1.0  0.50191  0.61599  0.26129  1.0000
  H   H1527     1.0  0.52102  0.62460  0.47353  1.0000
  C   C862      1.0  0.90830  0.49882  0.21792  1.0000
  H   H1528     1.0  0.70164  0.64818  0.04149  1.0000
  N   N50       1.0  0.51985  0.63727  0.99133  1.0000
  C   C863      1.0  0.49776  0.64151  0.08967  1.0000
  C   C864      1.0  0.95786  0.51544  0.23595  1.0000
  C   C865      1.0  0.98045  0.62570  0.37932  1.0000
  H   H1529     1.0  0.96979  0.48677  0.13353  1.0000
  H   H1530     1.0  0.87067  0.49893  0.22656  1.0000
  H   H1531     1.0  0.97684  0.51213  0.24184  1.0000
  C   C866      1.0  0.56299  0.63101  0.12263  1.0000
  C   C867      1.0  0.65133  0.44241  0.31820  1.0000
  H   H1532     1.0  0.96243  0.64497  0.04268  1.0000
  H   H1533     1.0  0.51244  0.35189  0.47157  1.0000
  H   H1534     1.0  0.68108  0.61385  0.12273  1.0000
  H   H1535     1.0  0.61198  0.64560  0.37139  1.0000
  H   H1536     1.0  0.97926  0.65060  0.42290  1.0000
  C   C868      1.0  0.93920  0.33182  0.32035  1.0000
  H   H1537     1.0  0.98202  0.60645  0.37458  1.0000
  H   H1538     1.0  0.94325  0.62923  0.98882  1.0000
  H   H1539     1.0  0.96362  0.63234  0.36746  1.0000
  H   H1540     1.0  0.64947  0.64901  0.12244  1.0000
  H   H1541     1.0  0.49206  0.41025  0.12739  1.0000
  H   H1542     1.0  0.51193  0.54935  0.40413  1.0000
  C   C869      1.0  0.96473  0.50571  0.13395  1.0000
  H   H1543     1.0  0.66129  0.64616  0.02794  1.0000
  C   C870      1.0  0.49790  0.32872  0.04954  1.0000
  C   C871      1.0  0.55162  0.33063  0.38346  1.0000
  H   H1544     1.0  0.70041  0.63428  0.14282  1.0000
  H   H1545     1.0  0.52854  0.65106  0.06105  1.0000
  C   C872      1.0  0.69927  0.64762  0.07097  1.0000
  H   H1546     1.0  0.58816  0.60905  0.99879  1.0000
  C   C873      1.0  0.55824  0.65424  0.13331  1.0000
  C   C874      1.0  0.65727  0.33201  0.43276  1.0000
  H   H1547     1.0  0.50694  0.64161  0.11597  1.0000
  H   H1548     1.0  0.63922  0.64767  0.06133  1.0000
  H   H1549     1.0  0.53029  0.32727  0.45800  1.0000
  H   H1550     1.0  0.98464  0.51633  0.18043  1.0000
  C   C875      1.0  0.98151  0.51806  0.10925  1.0000
  H   H1551     1.0  0.57316  0.58363  0.98193  1.0000
  H   H1552     1.0  0.96548  0.34310  0.41521  1.0000
  H   H1553     1.0  0.74683  0.64543  0.05736  1.0000
  H   H1554     1.0  0.49546  0.54977  0.36277  1.0000
  N   N51       1.0  0.67437  0.65494  0.08042  1.0000
  C   C876      1.0  0.92659  0.65495  0.15183  1.0000
  Fe  Fe98      1.0  0.93945  0.35476  0.69869  1.0000
  S   S195      1.0  0.91060  0.37484  0.72712  1.0000
  S   S196      1.0  0.93943  0.34524  0.63946  1.0000
  Fe  Fe99      1.0  0.97055  0.35302  0.76604  1.0000
  S   S197      1.0  0.94392  0.37376  0.79883  1.0000
  C   C877      1.0  0.57881  0.60154  0.97546  1.0000
  Fe  Fe100     1.0  0.91763  0.35018  0.77305  1.0000
  C   C878      1.0  0.50669  0.63080  0.95762  1.0000
  Fe  Fe101     1.0  0.93921  0.39723  0.75003  1.0000
  S   S198      1.0  0.92993  0.43725  0.75286  1.0000
  H   H1555     1.0  0.83903  0.38228  0.57552  1.0000
  S   S199      1.0  0.96798  0.37794  0.71936  1.0000
  Fe  Fe102     1.0  0.94814  0.57721  0.69007  1.0000
  S   S200      1.0  0.97445  0.59914  0.71989  1.0000
  S   S201      1.0  0.95685  0.53715  0.68651  1.0000
  Fe  Fe103     1.0  0.91803  0.62176  0.67213  1.0000
  C   C879      1.0  0.49178  0.33060  0.52797  1.0000
  C   C880      1.0  0.87095  0.36815  0.62143  1.0000
  Fe  Fe104     1.0  0.97120  0.62502  0.67499  1.0000
  Fe  Fe105     1.0  0.94289  0.61759  0.74444  1.0000
  S   S202      1.0  0.94401  0.62404  0.80474  1.0000
  S   S203      1.0  0.94708  0.60224  0.64279  1.0000
  S   S204      1.0  0.91679  0.59495  0.71641  1.0000
  H   H1556     1.0  0.91068  0.34976  0.51732  1.0000
  H   H1557     1.0  0.79240  0.64882  0.87187  1.0000
  H   H1558     1.0  0.48933  0.53662  0.70502  1.0000
  H   H1559     1.0  0.92861  0.55037  0.77525  1.0000
  H   H1560     1.0  0.84009  0.40518  0.60743  1.0000
  H   H1561     1.0  0.96973  0.64390  0.97741  1.0000
  C   C881      1.0  0.96328  0.35328  0.88575  1.0000
  H   H1562     1.0  0.86060  0.35425  0.60819  1.0000
  C   C882      1.0  0.51685  0.63886  0.83835  1.0000
  C   C883      1.0  0.53269  0.62050  0.82984  1.0000
  C   C884      1.0  0.55512  0.61947  0.84610  1.0000
  H   H1563     1.0  0.93139  0.47382  0.86343  1.0000
  H   H1564     1.0  0.96677  0.51758  0.88771  1.0000
  H   H1565     1.0  0.90068  0.59371  0.79408  1.0000
  H   H1566     1.0  0.56736  0.60527  0.83931  1.0000
  H   H1567     1.0  0.56062  0.64785  0.48325  1.0000
  C   C885      1.0  0.54931  0.34404  0.61381  1.0000
  C   C886      1.0  0.52830  0.34340  0.63342  1.0000
  H   H1568     1.0  0.89415  0.39516  0.54919  1.0000
  H   H1569     1.0  0.93706  0.41812  0.66546  1.0000
  H   H1570     1.0  0.55889  0.36010  0.61298  1.0000
  H   H1571     1.0  0.85758  0.43229  0.56446  1.0000
  C   C887      1.0  0.92130  0.63778  0.83035  1.0000
  C   C888      1.0  0.88609  0.40844  0.61502  1.0000
  C   C889      1.0  0.84936  0.41599  0.55485  1.0000
  H   H1572     1.0  0.97990  0.36289  0.88510  1.0000
  H   H1573     1.0  0.82463  0.63838  0.91480  1.0000
  H   H1574     1.0  0.96322  0.56657  0.85334  1.0000
  H   H1575     1.0  0.86833  0.38717  0.67305  1.0000
  H   H1576     1.0  0.97808  0.49063  0.68104  1.0000
  C   C890      1.0  0.85867  0.37393  0.65737  1.0000
  H   H1577     1.0  0.81663  0.62559  0.52924  1.0000
  H   H1578     1.0  0.92320  0.39637  0.61263  1.0000
  C   C891      1.0  0.96365  0.33633  0.91705  1.0000
  H   H1579     1.0  0.92331  0.51400  0.80313  1.0000
  H   H1580     1.0  0.54970  0.60927  0.94093  1.0000
  C   C892      1.0  0.93669  0.47192  0.83508  1.0000
  H   H1581     1.0  0.52778  0.60728  0.81050  1.0000
  C   C893      1.0  0.80595  0.63552  0.92132  1.0000
  C   C894      1.0  0.93717  0.46449  0.73230  1.0000
  C   C895      1.0  0.95704  0.46692  0.71104  1.0000
  C   C896      1.0  0.96255  0.48912  0.69713  1.0000
  C   C897      1.0  0.94837  0.50936  0.70406  1.0000
  C   C898      1.0  0.92828  0.50685  0.72481  1.0000
  C   C899      1.0  0.92278  0.48467  0.73874  1.0000
  H   H1582     1.0  0.96837  0.45175  0.70568  1.0000
  H   H1583     1.0  0.95698  0.65133  0.54465  1.0000
  H   H1584     1.0  0.91684  0.52195  0.72989  1.0000
  H   H1585     1.0  0.90721  0.48312  0.75470  1.0000
  H   H1586     1.0  0.96413  0.52973  0.76895  1.0000
  H   H1587     1.0  0.91262  0.57126  0.84800  1.0000
  C   C900      1.0  0.93286  0.55621  0.80299  1.0000
  C   C901      1.0  0.92494  0.64137  0.86716  1.0000
  H   H1588     1.0  0.90015  0.54523  0.82907  1.0000
  H   H1589     1.0  0.96693  0.49296  0.84162  1.0000
  C   C902      1.0  0.52107  0.33529  0.48128  1.0000
  H   H1590     1.0  0.89474  0.37155  0.49108  1.0000
  H   H1591     1.0  0.87416  0.34533  0.55441  1.0000
  H   H1592     1.0  0.90852  0.38789  0.65247  1.0000
  H   H1593     1.0  0.95752  0.48893  0.79625  1.0000
  H   H1594     1.0  0.81401  0.42955  0.56671  1.0000
  S   S205      1.0  0.59024  0.63511  0.89036  1.0000
  H   H1595     1.0  0.92643  0.51645  0.85007  1.0000
  H   H1596     1.0  0.84853  0.35644  0.70588  1.0000
  C   C903      1.0  0.90750  0.65248  0.88843  1.0000
  C   C904      1.0  0.87720  0.36187  0.54012  1.0000
  H   H1597     1.0  0.88820  0.35951  0.62752  1.0000
  S   S206      1.0  0.88514  0.63974  0.64851  1.0000
  H   H1598     1.0  0.97122  0.64112  0.58490  1.0000
  C   C905      1.0  0.88863  0.38009  0.56544  1.0000
  H   H1599     1.0  0.94852  0.36630  0.88877  1.0000
  H   H1600     1.0  0.88960  0.42254  0.59567  1.0000
  S   S207      1.0  0.88768  0.33115  0.79932  1.0000
  H   H1601     1.0  0.92260  0.43797  0.63460  1.0000
  H   H1602     1.0  0.50086  0.61235  0.95930  1.0000
  H   H1603     1.0  0.88808  0.56763  0.77486  1.0000
  H   H1604     1.0  0.94119  0.55059  0.87404  1.0000
  H   H1605     1.0  0.94108  0.57345  0.80012  1.0000
  H   H1606     1.0  0.55250  0.32615  0.51299  1.0000
  H   H1607     1.0  0.86013  0.36840  0.52915  1.0000
  C   C906      1.0  0.89260  0.57676  0.80020  1.0000
  H   H1608     1.0  0.73428  0.64657  0.96919  1.0000
  C   C907      1.0  0.55767  0.61725  0.96511  1.0000
  H   H1609     1.0  0.57066  0.36436  0.51210  1.0000
  H   H1610     1.0  0.90535  0.37168  0.57523  1.0000
  H   H1611     1.0  0.51836  0.63126  0.93406  1.0000
  H   H1612     1.0  0.94720  0.45530  0.83194  1.0000
  H   H1613     1.0  0.90781  0.42906  0.67467  1.0000
  C   C908      1.0  0.90937  0.56149  0.82275  1.0000
  C   C909      1.0  0.54090  0.34175  0.50793  1.0000
  N   N52       1.0  0.87389  0.38849  0.59659  1.0000
  C   C910      1.0  0.95669  0.54847  0.85637  1.0000
  C   C911      1.0  0.93664  0.51597  0.82485  1.0000
  C   C912      1.0  0.56188  0.63681  0.87072  1.0000
  C   C913      1.0  0.85741  0.35200  0.68032  1.0000
  H   H1614     1.0  0.49433  0.53089  0.65826  1.0000
  H   H1615     1.0  0.84043  0.38066  0.65287  1.0000
  C   C914      1.0  0.97034  0.53498  0.79607  1.0000
  S   S208      1.0  0.94416  0.32867  0.74241  1.0000
  H   H1616     1.0  0.94138  0.63556  0.87932  1.0000
  H   H1617     1.0  0.82420  0.43598  0.52257  1.0000
  H   H1618     1.0  0.52190  0.35882  0.64777  1.0000
  H   H1619     1.0  0.96098  0.34370  0.86006  1.0000
  H   H1620     1.0  0.77148  0.64866  0.90800  1.0000
  C   C915      1.0  0.91010  0.40211  0.63290  1.0000
  H   H1621     1.0  0.53390  0.34834  0.53379  1.0000
  C   C916      1.0  0.84986  0.39719  0.58456  1.0000
  H   H1622     1.0  0.95894  0.62024  0.55428  1.0000
  H   H1623     1.0  0.87451  0.41692  0.63549  1.0000
  H   H1624     1.0  0.54585  0.37712  0.48827  1.0000
  C   C917      1.0  0.91989  0.42317  0.65301  1.0000
  S   S209      1.0  0.58510  0.32514  0.57246  1.0000
  S   S210      1.0  0.94189  0.64535  0.70251  1.0000
  H   H1625     1.0  0.92170  0.65358  0.59952  1.0000
  H   H1626     1.0  0.80184  0.61718  0.91401  1.0000
  H   H1627     1.0  0.97674  0.57210  0.78358  1.0000
  C   C918      1.0  0.89299  0.35598  0.50830  1.0000
  H   H1628     1.0  0.80345  0.63786  0.95052  1.0000
  H   H1629     1.0  0.59124  0.60024  0.95280  1.0000
  C   C919      1.0  0.55630  0.36065  0.49277  1.0000
  H   H1630     1.0  0.87617  0.58057  0.81517  1.0000
  C   C920      1.0  0.95134  0.49256  0.82388  1.0000
  H   H1631     1.0  0.84744  0.33819  0.66629  1.0000
  N   N53       1.0  0.94957  0.53860  0.82056  1.0000
  H   H1632     1.0  0.51903  0.65419  0.74976  1.0000
  C   C921      1.0  0.92070  0.32444  0.61998  1.0000
  C   C922      1.0  0.96825  0.63703  0.55620  1.0000
  H   H1633     1.0  0.85874  0.40971  0.53063  1.0000
  C   C923      1.0  0.78977  0.65252  0.90066  1.0000
  H   H1634     1.0  0.96785  0.34644  0.94151  1.0000
  H   H1635     1.0  0.97331  0.63910  0.48701  1.0000
  H   H1636     1.0  0.78236  0.65267  0.52228  1.0000
  H   H1637     1.0  0.94562  0.32967  0.91971  1.0000
  H   H1638     1.0  0.89691  0.64270  0.78668  1.0000
  H   H1639     1.0  0.81530  0.40676  0.53267  1.0000
  H   H1640     1.0  0.87535  0.34503  0.68659  1.0000
  C   C924      1.0  0.54589  0.65497  0.87947  1.0000
  H   H1641     1.0  0.92074  0.47068  0.81799  1.0000
  C   C925      1.0  0.89999  0.64542  0.81494  1.0000
  C   C926      1.0  0.55823  0.32393  0.59587  1.0000
  C   C927      1.0  0.82413  0.42241  0.54363  1.0000
  H   H1642     1.0  0.88510  0.34180  0.49208  1.0000
  C   C928      1.0  0.81358  0.63999  0.54898  1.0000
  H   H1643     1.0  0.56427  0.63471  0.95819  1.0000
  H   H1644     1.0  0.96880  0.55235  0.92815  1.0000
  H   H1645     1.0  0.50214  0.32596  0.55246  1.0000
  H   H1646     1.0  0.98297  0.60980  0.49600  1.0000
  H   H1647     1.0  0.49240  0.35009  0.52639  1.0000
  H   H1648     1.0  0.98212  0.52031  0.80487  1.0000
  H   H1649     1.0  0.95530  0.34964  0.49533  1.0000
  C   C929      1.0  0.98369  0.54722  0.91047  1.0000
  C   C930      1.0  0.97498  0.53364  0.87783  1.0000
  H   H1650     1.0  0.93296  0.33068  0.56682  1.0000
  H   H1651     1.0  0.80413  0.63286  0.57210  1.0000
  H   H1652     1.0  0.83094  0.64621  0.55820  1.0000
  H   H1653     1.0  0.49117  0.41920  0.79479  1.0000
  C   C931      1.0  0.98859  0.62836  0.49703  1.0000
  C   C932      1.0  0.51612  0.32255  0.63538  1.0000
  C   C933      1.0  0.98658  0.55613  0.79216  1.0000
  S   S211      1.0  0.85613  0.80312  0.40772  1.0000
  C   C934      1.0  0.94272  0.84963  0.45830  1.0000
  Fe  Fe106     1.0  0.59211  0.74210  0.43991  1.0000
  S   S212      1.0  0.61462  0.76935  0.41588  1.0000
  S   S213      1.0  0.56871  0.71897  0.40550  1.0000
  H   H1654     1.0  0.85988  0.71312  0.17779  1.0000
  H   H1655     1.0  0.50034  0.85103  0.00801  1.0000
  Fe  Fe107     1.0  0.59257  0.79567  0.44649  1.0000
  S   S214      1.0  0.57541  0.82867  0.42253  1.0000
  C   C935      1.0  0.93156  0.77926  0.27218  1.0000
  Fe  Fe108     1.0  0.94241  0.85172  0.26165  1.0000
  S   S215      1.0  0.91233  0.86651  0.22949  1.0000
  S   S216      1.0  0.94229  0.84140  0.32032  1.0000
  Fe  Fe109     1.0  0.97563  0.85334  0.19751  1.0000
  S   S217      1.0  0.94759  0.86899  0.16104  1.0000
  C   C936      1.0  0.89008  0.93613  0.30150  1.0000
  Fe  Fe110     1.0  0.93792  0.89254  0.20848  1.0000
  S   S218      1.0  0.92411  0.93119  0.20603  1.0000
  Fe  Fe111     1.0  0.92450  0.84205  0.18537  1.0000
  S   S219      1.0  0.89652  0.81854  0.16171  1.0000
  S   S220      1.0  0.96760  0.87862  0.24304  1.0000
  S   S221      1.0  0.95295  0.82553  0.21936  1.0000
  Fe  Fe112     1.0  0.87526  0.71672  0.01909  1.0000
  S   S222      1.0  0.85609  0.69624  0.06017  1.0000
  S   S223      1.0  0.89863  0.74820  0.02805  1.0000
  H   H1656     1.0  0.90669  0.89799  0.34485  1.0000
  C   C937      1.0  0.67118  0.68077  0.07230  1.0000
  H   H1657     1.0  0.85011  0.74494  0.28488  1.0000
  H   H1658     1.0  0.86375  0.89968  0.23816  1.0000
  C   C938      1.0  0.97474  0.67933  0.08927  1.0000
  H   H1659     1.0  0.54906  0.65778  0.15802  1.0000
  H   H1660     1.0  0.96312  0.66460  0.09542  1.0000
  C   C939      1.0  0.93321  0.95918  0.22239  1.0000
  C   C940      1.0  0.95563  0.96269  0.23668  1.0000
  C   C941      1.0  0.88793  0.77152  0.27129  1.0000
  C   C942      1.0  0.84602  0.76310  0.27535  1.0000
  H   H1661     1.0  0.96834  0.94821  0.23734  1.0000
  H   H1662     1.0  0.85801  0.89701  0.41038  1.0000
  H   H1663     1.0  0.98042  0.72502  0.08309  1.0000
  C   C943      1.0  0.89753  0.79949  0.12396  1.0000
  C   C944      1.0  0.91589  0.79942  0.09939  1.0000
  C   C945      1.0  0.91593  0.78366  0.07012  1.0000
  C   C946      1.0  0.89765  0.76790  0.06505  1.0000
  C   C947      1.0  0.87924  0.76811  0.08947  1.0000
  C   C948      1.0  0.87919  0.78385  0.11870  1.0000
  H   H1664     1.0  0.93000  0.81150  0.10294  1.0000
  H   H1665     1.0  0.93017  0.78374  0.05123  1.0000
  H   H1666     1.0  0.86495  0.75626  0.08565  1.0000
  H   H1667     1.0  0.86475  0.78398  0.13722  1.0000
  H   H1668     1.0  0.87995  0.89893  0.29929  1.0000
  C   C949      1.0  0.57378  0.69236  0.38156  1.0000
  C   C950      1.0  0.55608  0.68479  0.35823  1.0000
  C   C951      1.0  0.55843  0.66337  0.33959  1.0000
  H   H1669     1.0  0.81554  0.70940  0.45061  1.0000
  C   C952      1.0  0.59414  0.67831  0.38587  1.0000
  H   H1670     1.0  0.54025  0.69546  0.35484  1.0000
  H   H1671     1.0  0.53488  0.83375  0.46665  1.0000
  H   H1672     1.0  0.60785  0.68381  0.40396  1.0000
  C   C953      1.0  0.51536  0.82419  0.33955  1.0000
  C   C954      1.0  0.52442  0.80389  0.35637  1.0000
  C   C955      1.0  0.54259  0.80505  0.38199  1.0000
  C   C956      1.0  0.55191  0.82667  0.39127  1.0000
  C   C957      1.0  0.54244  0.84713  0.37527  1.0000
  C   C958      1.0  0.52422  0.84593  0.34951  1.0000
  H   H1673     1.0  0.51730  0.78712  0.34942  1.0000
  H   H1674     1.0  0.54952  0.78919  0.39433  1.0000
  H   H1675     1.0  0.54949  0.86396  0.38234  1.0000
  H   H1676     1.0  0.52485  0.71739  0.44623  1.0000
  C   C959      1.0  0.88041  0.81396  0.38441  1.0000
  C   C960      1.0  0.90358  0.80980  0.39585  1.0000
  C   C961      1.0  0.92233  0.81792  0.37552  1.0000
  C   C962      1.0  0.91815  0.83032  0.34370  1.0000
  C   C963      1.0  0.89500  0.83464  0.33242  1.0000
  C   C964      1.0  0.87626  0.82646  0.35267  1.0000
  H   H1677     1.0  0.90702  0.80003  0.42005  1.0000
  H   H1678     1.0  0.94022  0.81452  0.38445  1.0000
  H   H1679     1.0  0.89156  0.84458  0.30841  1.0000
  H   H1680     1.0  0.85836  0.82993  0.34386  1.0000
  N   N54       1.0  0.86509  0.77065  0.25055  1.0000
  C   C965      1.0  0.56478  0.67294  0.11143  1.0000
  H   H1681     1.0  0.87869  0.87916  0.38517  1.0000
  C   C966      1.0  0.50122  0.66410  0.39154  1.0000
  C   C967      1.0  0.79662  0.71421  0.44707  1.0000
  H   H1682     1.0  0.83516  0.72573  0.15356  1.0000
  H   H1683     1.0  0.56061  0.69081  0.11963  1.0000
  C   C968      1.0  0.95095  0.96825  0.12421  1.0000
  H   H1684     1.0  0.49645  0.68217  0.98965  1.0000
  H   H1685     1.0  0.97887  0.92601  0.29313  1.0000
  S   S224      1.0  0.58296  0.69272  0.05122  1.0000
  H   H1686     1.0  0.83117  0.75075  0.34403  1.0000
  H   H1687     1.0  0.86350  0.73842  0.14986  1.0000
  C   C969      1.0  0.96309  0.68191  0.02512  1.0000
  H   H1688     1.0  0.84946  0.92215  0.26516  1.0000
  H   H1689     1.0  0.72532  0.76044  0.43046  1.0000
  C   C970      1.0  0.86634  0.91646  0.25274  1.0000
  H   H1690     1.0  0.63706  0.68498  0.10016  1.0000
  C   C971      1.0  0.49363  0.67610  0.35687  1.0000
  C   C972      1.0  0.49298  0.84637  0.43755  1.0000
  H   H1691     1.0  0.54460  0.65772  0.32185  1.0000
  C   C973      1.0  0.93889  0.70098  0.07142  1.0000
  C   C974      1.0  0.93610  0.71854  0.10315  1.0000
  H   H1692     1.0  0.71507  0.66705  0.11617  1.0000
  H   H1693     1.0  0.89575  0.66566  0.12105  1.0000
  C   C975      1.0  0.60631  0.81970  0.33885  1.0000
  H   H1694     1.0  0.90011  0.98360  0.30757  1.0000
  C   C976      1.0  0.91108  0.71929  0.11756  1.0000
  H   H1695     1.0  0.50058  0.83025  0.42470  1.0000
  H   H1696     1.0  0.79071  0.70751  0.42066  1.0000
  H   H1697     1.0  0.82889  0.76239  0.26100  1.0000
  H   H1698     1.0  0.86576  0.79439  0.20557  1.0000
  H   H1699     1.0  0.95021  0.73999  0.03488  1.0000
  H   H1700     1.0  0.88112  0.75729  0.20189  1.0000
  H   H1701     1.0  0.97383  0.90073  0.32062  1.0000
  H   H1702     1.0  0.83307  0.79590  0.30029  1.0000
  H   H1703     1.0  0.92864  0.70840  0.04855  1.0000
  H   H1704     1.0  0.92949  0.68494  0.07850  1.0000
  H   H1705     1.0  0.94008  0.73647  0.09424  1.0000
  H   H1706     1.0  0.94794  0.71397  0.12574  1.0000
  C   C977      1.0  0.86580  0.81650  0.25187  1.0000
  H   H1707     1.0  0.67704  0.68440  0.04462  1.0000
  H   H1708     1.0  0.85788  0.83941  0.20673  1.0000
  C   C978      1.0  0.71872  0.66280  0.08777  1.0000
  H   H1709     1.0  0.97624  0.68916  0.11486  1.0000
  Fe  Fe113     1.0  0.85475  0.79011  0.46525  1.0000
  H   H1710     1.0  0.51748  0.86171  0.33674  1.0000
  S   S225      1.0  0.49432  0.82080  0.30472  1.0000
  H   H1711     1.0  0.97945  0.84618  0.99911  1.0000
  H   H1712     1.0  0.90794  0.70344  0.13341  1.0000
  H   H1713     1.0  0.90837  0.73480  0.13529  1.0000
  H   H1714     1.0  0.89801  0.72037  0.09548  1.0000
  H   H1715     1.0  0.89196  0.96241  0.36149  1.0000
  H   H1716     1.0  0.95986  0.84024  0.45405  1.0000
  H   H1717     1.0  0.94766  0.76364  0.18830  1.0000
  C   C979      1.0  0.97591  0.92005  0.32082  1.0000
  C   C980      1.0  0.91039  0.77372  0.24862  1.0000
  H   H1718     1.0  0.97948  0.89430  0.03730  1.0000
  H   H1719     1.0  0.87156  0.92976  0.23308  1.0000
  H   H1720     1.0  0.93097  0.86793  0.38889  1.0000
  H   H1721     1.0  0.58924  0.82954  0.33633  1.0000
  C   C981      1.0  0.85149  0.72984  0.16848  1.0000
  C   C982      1.0  0.51443  0.68263  0.00082  1.0000
  C   C983      1.0  0.90930  0.95799  0.34942  1.0000
  H   H1722     1.0  0.89971  0.97607  0.21051  1.0000
  C   C984      1.0  0.97748  0.87499  0.03645  1.0000
  S   S226      1.0  0.67757  0.76261  0.45538  1.0000
  S   S227      1.0  0.84377  0.65863  0.99566  1.0000
  H   H1723     1.0  0.95776  0.95150  0.33837  1.0000
  C   C985      1.0  0.51291  0.84662  0.98628  1.0000
  H   H1724     1.0  0.49948  0.86195  0.42356  1.0000
  H   H1725     1.0  0.97890  0.98722  0.26189  1.0000
  N   N55       1.0  0.58818  0.75964  0.29579  1.0000
  C   C986      1.0  0.60136  0.76115  0.26120  1.0000
  C   C987      1.0  0.59924  0.74032  0.31829  1.0000
  C   C988      1.0  0.56344  0.75262  0.28663  1.0000
  C   C989      1.0  0.58700  0.78264  0.31646  1.0000
  H   H1726     1.0  0.97637  0.76913  0.01000  1.0000
  C   C990      1.0  0.58929  0.77670  0.23213  1.0000
  C   C991      1.0  0.54803  0.74611  0.31863  1.0000
  C   C992      1.0  0.62586  0.74161  0.32634  1.0000
  C   C993      1.0  0.63440  0.72073  0.34880  1.0000
  H   H1727     1.0  0.80687  0.76436  0.31943  1.0000
  H   H1728     1.0  0.51299  0.68292  0.03035  1.0000
  C   C994      1.0  0.52246  0.74314  0.30725  1.0000
  H   H1729     1.0  0.60402  0.74328  0.24925  1.0000
  H   H1730     1.0  0.61937  0.76746  0.26578  1.0000
  H   H1731     1.0  0.59070  0.73984  0.34483  1.0000
  H   H1732     1.0  0.59625  0.72288  0.30554  1.0000
  H   H1733     1.0  0.56377  0.73724  0.26797  1.0000
  H   H1734     1.0  0.55379  0.76706  0.27237  1.0000
  H   H1735     1.0  0.57091  0.79322  0.30913  1.0000
  H   H1736     1.0  0.58497  0.77933  0.34553  1.0000
  H   H1737     1.0  0.62066  0.83198  0.33403  1.0000
  H   H1738     1.0  0.62503  0.79044  0.31551  1.0000
  H   H1739     1.0  0.57479  0.76705  0.21920  1.0000
  C   C995      1.0  0.72614  0.76502  0.45851  1.0000
  H   H1740     1.0  0.54879  0.75956  0.34008  1.0000
  H   H1741     1.0  0.55439  0.72920  0.32976  1.0000
  H   H1742     1.0  0.63630  0.74129  0.30151  1.0000
  H   H1743     1.0  0.62961  0.75757  0.34205  1.0000
  H   H1744     1.0  0.63137  0.70392  0.33450  1.0000
  H   H1745     1.0  0.65350  0.72200  0.35441  1.0000
  H   H1746     1.0  0.62511  0.72068  0.37476  1.0000
  H   H1747     1.0  0.93398  0.65852  0.03506  1.0000
  H   H1748     1.0  0.97870  0.72863  0.19303  1.0000
  H   H1749     1.0  0.93533  0.76557  0.14420  1.0000
  H   H1750     1.0  0.83428  0.83743  0.23853  1.0000
  H   H1751     1.0  0.59710  0.79346  0.18207  1.0000
  C   C996      1.0  0.74105  0.70734  0.01389  1.0000
  H   H1752     1.0  0.51192  0.73871  0.33090  1.0000
  H   H1753     1.0  0.51507  0.75966  0.29561  1.0000
  H   H1754     1.0  0.52112  0.72872  0.28727  1.0000
  C   C997      1.0  0.85826  0.79363  0.23283  1.0000
  H   H1755     1.0  0.79424  0.73361  0.44727  1.0000
  H   H1756     1.0  0.89048  0.75533  0.28752  1.0000
  H   H1757     1.0  0.92405  0.66852  0.17190  1.0000
  C   C998      1.0  0.97816  0.71619  0.05679  1.0000
  H   H1758     1.0  0.90167  0.90694  0.26754  1.0000
  C   C999      1.0  0.96866  0.73454  0.02949  1.0000
  C   C1000     1.0  0.98246  0.86531  0.99897  1.0000
  H   H1759     1.0  0.70364  0.71242  0.00415  1.0000
  H   H1760     1.0  0.92987  0.88602  0.44730  1.0000
  Fe  Fe114     1.0  0.87374  0.66445  0.03461  1.0000
  H   H1761     1.0  0.61418  0.76688  0.19028  1.0000
  C   C1001     1.0  0.53011  0.66133  0.98852  1.0000
  C   C1002     1.0  0.94528  0.87426  0.44184  1.0000
  S   S228      1.0  0.63066  0.71428  0.98317  1.0000
  C   C1003     1.0  0.84558  0.74604  0.20013  1.0000
  H   H1762     1.0  0.71966  0.67958  0.07312  1.0000
  C   C1004     1.0  0.49959  0.84720  0.47719  1.0000
  H   H1763     1.0  0.95921  0.87113  0.04405  1.0000
  C   C1005     1.0  0.84113  0.77884  0.30858  1.0000
  C   C1006     1.0  0.60648  0.78302  0.20294  1.0000
  S   S229      1.0  0.78846  0.70125  0.02915  1.0000
  H   H1764     1.0  0.96951  0.72723  0.00195  1.0000
  H   H1765     1.0  0.67272  0.66703  0.13561  1.0000
  H   H1766     1.0  0.87507  0.73524  0.23369  1.0000
  C   C1007     1.0  0.64561  0.71803  0.07750  1.0000
  C   C1008     1.0  0.86800  0.75193  0.22189  1.0000
  N   N56       1.0  0.96377  0.69463  0.06060  1.0000
  C   C1009     1.0  0.94957  0.77184  0.16180  1.0000
  H   H1767     1.0  0.83891  0.79487  0.22842  1.0000
  C   C1010     1.0  0.98324  0.75660  0.03037  1.0000
  H   H1768     1.0  0.95260  0.69242  0.00541  1.0000
  H   H1769     1.0  0.76415  0.76680  0.45936  1.0000
  C   C1011     1.0  0.59640  0.65664  0.36747  1.0000
  S   S230      1.0  0.89441  0.68508  0.99571  1.0000
  H   H1770     1.0  0.93267  0.90967  0.30443  1.0000
  C   C1012     1.0  0.97334  0.76532  0.14544  1.0000
  H   H1771     1.0  0.87318  0.94325  0.31242  1.0000
  H   H1772     1.0  0.96631  0.95579  0.12535  1.0000
  H   H1773     1.0  0.82009  0.77949  0.35657  1.0000
  H   H1774     1.0  0.88503  0.81856  0.24944  1.0000
  C   C1013     1.0  0.90372  0.91578  0.35691  1.0000
  C   C1014     1.0  0.52272  0.71549  0.47549  1.0000
  H   H1775     1.0  0.60833  0.81300  0.36646  1.0000
  H   H1776     1.0  0.76348  0.70855  0.47100  1.0000
  H   H1777     1.0  0.94742  0.79116  0.16440  1.0000
  H   H1778     1.0  0.89507  0.94884  0.28070  1.0000
  H   H1779     1.0  0.93844  0.96332  0.14520  1.0000
  H   H1780     1.0  0.86496  0.91517  0.35258  1.0000
  C   C1015     1.0  0.60773  0.79942  0.31199  1.0000
  H   H1781     1.0  0.96122  0.88259  0.45270  1.0000
  H   H1782     1.0  0.92186  0.95719  0.37234  1.0000
  H   H1783     1.0  0.90810  0.78759  0.22820  1.0000
  H   H1784     1.0  0.93419  0.93827  0.28812  1.0000
  H   H1785     1.0  0.78388  0.68427  0.47400  1.0000
  C   C1016     1.0  0.94794  0.87254  0.40143  1.0000
  H   H1786     1.0  0.58161  0.79317  0.24371  1.0000
  Fe  Fe115     1.0  0.63748  0.76614  0.46579  1.0000
  S   S231      1.0  0.56909  0.76888  0.46816  1.0000
  H   H1787     1.0  0.74277  0.72423  0.02688  1.0000
  H   H1788     1.0  0.93000  0.83967  0.44198  1.0000
  H   H1789     1.0  0.95316  0.88962  0.39080  1.0000
  H   H1790     1.0  0.85972  0.85417  0.24935  1.0000
  C   C1017     1.0  0.91712  0.97847  0.22144  1.0000
  H   H1791     1.0  0.49651  0.69522  0.35893  1.0000
  H   H1792     1.0  0.89588  0.85880  0.45081  1.0000
  C   C1018     1.0  0.82373  0.76756  0.33351  1.0000
  H   H1793     1.0  0.98207  0.76538  0.05688  1.0000
  H   H1794     1.0  0.60731  0.80721  0.28498  1.0000
  H   H1795     1.0  0.94232  0.96651  0.09766  1.0000
  H   H1796     1.0  0.97478  0.77501  0.11998  1.0000
  C   C1019     1.0  0.57628  0.66867  0.07881  1.0000
  H   H1797     1.0  0.88767  0.78606  0.29117  1.0000
  H   H1798     1.0  0.92916  0.79694  0.28450  1.0000
  H   H1799     1.0  0.86160  0.81655  0.28051  1.0000
  H   H1800     1.0  0.54263  0.70759  0.00191  1.0000
  H   H1801     1.0  0.63519  0.68612  0.05227  1.0000
  C   C1020     1.0  0.87881  0.91662  0.37337  1.0000
  H   H1802     1.0  0.91459  0.75684  0.23470  1.0000
  H   H1803     1.0  0.62080  0.79369  0.21421  1.0000
  H   H1804     1.0  0.83301  0.73673  0.21698  1.0000
  H   H1805     1.0  0.57678  0.91014  0.99855  1.0000
  H   H1806     1.0  0.62716  0.72495  0.07718  1.0000
  H   H1807     1.0  0.65428  0.72415  0.10242  1.0000
  H   H1808     1.0  0.49777  0.70520  0.22462  1.0000
  Fe  Fe116     1.0  0.82757  0.69222  0.01767  1.0000
  H   H1809     1.0  0.94772  0.77906  0.25584  1.0000
  H   H1810     1.0  0.65481  0.72516  0.05415  1.0000
  C   C1021     1.0  0.87600  0.89631  0.39915  1.0000
  H   H1811     1.0  0.83677  0.76220  0.18958  1.0000
  C   C1022     1.0  0.93205  0.92842  0.31317  1.0000
  H   H1812     1.0  0.88881  0.89754  0.42154  1.0000
  C   C1023     1.0  0.96160  0.98492  0.25050  1.0000
  C   C1024     1.0  0.88547  0.91296  0.28121  1.0000
  H   H1813     1.0  0.91636  0.91650  0.37963  1.0000
  Fe  Fe117     1.0  0.60156  0.68988  0.99752  1.0000
  H   H1814     1.0  0.85724  0.78188  0.32448  1.0000
  C   C1025     1.0  0.76108  0.69238  0.01033  1.0000
  H   H1815     1.0  0.75657  0.66254  0.09494  1.0000
  C   C1026     1.0  0.85361  0.83814  0.23551  1.0000
  H   H1816     1.0  0.98098  0.68012  0.01348  1.0000
  C   C1027     1.0  0.91505  0.97927  0.32584  1.0000
  C   C1028     1.0  0.95420  0.93250  0.33658  1.0000
  H   H1817     1.0  0.95203  0.92608  0.36405  1.0000
  N   N57       1.0  0.90874  0.93463  0.33025  1.0000
  H   H1818     1.0  0.68249  0.69132  0.09023  1.0000
  H   H1819     1.0  0.96166  0.85916  0.39394  1.0000
  H   H1820     1.0  0.87559  0.93316  0.38858  1.0000
  H   H1821     1.0  0.93397  0.76607  0.29362  1.0000
  C   C1029     1.0  0.71876  0.70068  0.00104  1.0000
  C   C1030     1.0  0.64582  0.69125  0.07588  1.0000
  H   H1822     1.0  0.51964  0.66868  0.39709  1.0000
  H   H1823     1.0  0.97363  0.74636  0.13898  1.0000
  H   H1824     1.0  0.52638  0.83369  0.99617  1.0000
  H   H1825     1.0  0.53192  0.86454  0.46838  1.0000
  C   C1031     1.0  0.73609  0.66371  0.98133  1.0000
  H   H1826     1.0  0.51352  0.72068  0.99939  1.0000
  H   H1827     1.0  0.93080  0.97574  0.30938  1.0000
  C   C1032     1.0  0.95225  0.65730  0.02535  1.0000
  C   C1033     1.0  0.74829  0.76862  0.47488  1.0000
  C   C1034     1.0  0.52489  0.70580  0.98983  1.0000
  H   H1828     1.0  0.54663  0.66237  0.00464  1.0000
  C   C1035     1.0  0.78212  0.70356  0.47654  1.0000
  C   C1036     1.0  0.89229  0.85550  0.47932  1.0000
  H   H1829     1.0  0.85533  0.86414  0.47102  1.0000
  C   C1037     1.0  0.75842  0.67054  0.99366  1.0000
  H   H1830     1.0  0.50374  0.66880  0.33388  1.0000
  H   H1831     1.0  0.98637  0.69399  0.23004  1.0000
  H   H1832     1.0  0.49051  0.67191  0.41326  1.0000
  H   H1833     1.0  0.98806  0.76992  0.19862  1.0000
  H   H1834     1.0  0.55515  0.66933  0.44849  1.0000
  C   C1038     1.0  0.71605  0.67866  0.98495  1.0000
  H   H1835     1.0  0.56961  0.87027  0.47597  1.0000
  H   H1836     1.0  0.77344  0.65858  0.99132  1.0000
  C   C1039     1.0  0.70505  0.76754  0.47787  1.0000
  H   H1837     1.0  0.96949  0.87391  0.98067  1.0000
  H   H1838     1.0  0.48939  0.74379  0.44813  1.0000
  S   S232      1.0  0.62119  0.65724  0.97978  1.0000
  S   S233      1.0  0.96969  0.82442  0.67705  1.0000
  C   C1040     1.0  0.75506  0.69209  0.53915  1.0000
  H   H1839     1.0  0.98446  0.74067  0.55975  1.0000
  Fe  Fe118     1.0  0.86470  0.75230  0.52211  1.0000
  S   S234      1.0  0.84429  0.77237  0.56412  1.0000
  S   S235      1.0  0.88848  0.71981  0.53077  1.0000
  Fe  Fe119     1.0  0.81691  0.77928  0.52047  1.0000
  S   S236      1.0  0.77734  0.77833  0.53406  1.0000
  Fe  Fe120     1.0  0.86273  0.80377  0.54374  1.0000
  S   S237      1.0  0.87857  0.83318  0.57689  1.0000
  S   S238      1.0  0.86379  0.67462  0.89840  1.0000
  C   C1041     1.0  0.98272  0.68046  0.81562  1.0000
  Fe  Fe121     1.0  0.59433  0.76632  0.51426  1.0000
  S   S239      1.0  0.57743  0.76271  0.56903  1.0000
  H   H1840     1.0  0.95748  0.75460  0.60085  1.0000
  Fe  Fe122     1.0  0.86371  0.68145  0.95860  1.0000
  Fe  Fe123     1.0  0.61258  0.71631  0.92911  1.0000
  S   S240      1.0  0.63379  0.68524  0.90805  1.0000
  S   S241      1.0  0.60987  0.74526  0.88732  1.0000
  C   C1042     1.0  0.78814  0.69430  0.84909  1.0000
  H   H1841     1.0  0.78844  0.76245  0.60581  1.0000
  H   H1842     1.0  0.53555  0.66445  0.96054  1.0000
  Fe  Fe124     1.0  0.52999  0.85284  0.72321  1.0000
  S   S242      1.0  0.54572  0.87305  0.76945  1.0000
  S   S243      1.0  0.55219  0.84922  0.67273  1.0000
  S   S244      1.0  0.88451  0.78359  0.50380  1.0000
  H   H1843     1.0  0.49850  0.79584  0.90040  1.0000
  Fe  Fe125     1.0  0.51171  0.89442  0.76854  1.0000
  S   S245      1.0  0.51008  0.93437  0.78128  1.0000
  Fe  Fe126     1.0  0.52798  0.84706  0.80466  1.0000
  S   S246      1.0  0.53715  0.83054  0.85873  1.0000
  H   H1844     1.0  0.97592  0.78878  0.59619  1.0000
  S   S247      1.0  0.51511  0.82542  0.75867  1.0000
  C   C1043     1.0  0.55632  0.80581  0.86547  1.0000
  C   C1044     1.0  0.57156  0.79750  0.83886  1.0000
  C   C1045     1.0  0.58777  0.77895  0.84612  1.0000
  C   C1046     1.0  0.58854  0.76807  0.87968  1.0000
  C   C1047     1.0  0.57284  0.77596  0.90601  1.0000
  C   C1048     1.0  0.55700  0.79491  0.89902  1.0000
  H   H1845     1.0  0.57138  0.80583  0.81303  1.0000
  H   H1846     1.0  0.59994  0.77309  0.82565  1.0000
  H   H1847     1.0  0.57336  0.76785  0.93200  1.0000
  H   H1848     1.0  0.54543  0.80130  0.91988  1.0000
  H   H1849     1.0  0.81448  0.75279  0.62956  1.0000
  H   H1850     1.0  0.86821  0.70839  0.84152  1.0000
  Fe  Fe127     1.0  0.60390  0.66398  0.92644  1.0000
  C   C1049     1.0  0.57343  0.70424  0.81963  1.0000
  C   C1050     1.0  0.56195  0.84586  0.51950  1.0000
  H   H1851     1.0  0.54949  0.79881  0.52543  1.0000
  C   C1051     1.0  0.51962  0.96289  0.72233  1.0000
  C   C1052     1.0  0.51340  0.96170  0.75836  1.0000
  H   H1852     1.0  0.52278  0.76718  0.53487  1.0000
  S   S248      1.0  0.68815  0.66831  0.97042  1.0000
  H   H1853     1.0  0.52222  0.94684  0.70709  1.0000
  H   H1854     1.0  0.83700  0.69094  0.79294  1.0000
  C   C1053     1.0  0.57151  0.78648  0.59895  1.0000
  C   C1054     1.0  0.55621  0.78349  0.62776  1.0000
  C   C1055     1.0  0.55018  0.80240  0.65086  1.0000
  C   C1056     1.0  0.55977  0.82439  0.64575  1.0000
  C   C1057     1.0  0.57555  0.82714  0.61757  1.0000
  C   C1058     1.0  0.58136  0.80834  0.59426  1.0000
  H   H1855     1.0  0.54864  0.76658  0.63178  1.0000
  H   H1856     1.0  0.53801  0.80005  0.67239  1.0000
  H   H1857     1.0  0.58333  0.84398  0.61373  1.0000
  H   H1858     1.0  0.59357  0.81072  0.57275  1.0000
  H   H1859     1.0  0.98772  0.69281  0.83728  1.0000
  H   H1860     1.0  0.92128  0.77520  0.71194  1.0000
  C   C1059     1.0  0.72877  0.77681  0.53064  1.0000
  H   H1861     1.0  0.58094  0.71895  0.83527  1.0000
  H   H1862     1.0  0.85173  0.67617  0.62795  1.0000
  C   C1060     1.0  0.74148  0.68129  0.86794  1.0000
  C   C1061     1.0  0.88741  0.69847  0.56489  1.0000
  C   C1062     1.0  0.89518  0.70678  0.73492  1.0000
  C   C1063     1.0  0.93935  0.77299  0.72307  1.0000
  H   H1863     1.0  0.52950  0.70177  0.84384  1.0000
  C   C1064     1.0  0.86722  0.67814  0.61193  1.0000
  C   C1065     1.0  0.86769  0.69617  0.58640  1.0000
  C   C1066     1.0  0.95249  0.86043  0.55952  1.0000
  S   S249      1.0  0.49528  0.87005  0.80798  1.0000
  H   H1864     1.0  0.85270  0.70802  0.58288  1.0000
  C   C1067     1.0  0.94434  0.82747  0.64928  1.0000
  C   C1068     1.0  0.93507  0.80727  0.63340  1.0000
  C   C1069     1.0  0.91504  0.80867  0.61111  1.0000
  C   C1070     1.0  0.90353  0.83033  0.60538  1.0000
  C   C1071     1.0  0.91230  0.85045  0.62218  1.0000
  C   C1072     1.0  0.93275  0.84911  0.64369  1.0000
  H   H1865     1.0  0.94345  0.79044  0.63835  1.0000
  H   H1866     1.0  0.90832  0.79300  0.59873  1.0000
  H   H1867     1.0  0.90336  0.86725  0.61823  1.0000
  H   H1868     1.0  0.93933  0.86475  0.65634  1.0000
  H   H1869     1.0  0.62167  0.70119  0.83383  1.0000
  N   N58       1.0  0.92821  0.71720  0.78012  1.0000
  H   H1870     1.0  0.97077  0.87109  0.60757  1.0000
  C   C1073     1.0  0.91371  0.71490  0.81362  1.0000
  H   H1871     1.0  0.86604  0.66210  0.82413  1.0000
  C   C1074     1.0  0.91966  0.70089  0.75116  1.0000
  C   C1075     1.0  0.73585  0.71160  0.53275  1.0000
  H   H1872     1.0  0.60614  0.84702  0.48635  1.0000
  C   C1076     1.0  0.89254  0.73246  0.81866  1.0000
  C   C1077     1.0  0.87673  0.72499  0.84890  1.0000
  H   H1873     1.0  0.53594  0.90087  0.61942  1.0000
  H   H1874     1.0  0.77945  0.70897  0.83400  1.0000
  C   C1078     1.0  0.81795  0.69154  0.79905  1.0000
  H   H1875     1.0  0.91006  0.74887  0.76113  1.0000
  H   H1876     1.0  0.90718  0.69677  0.81582  1.0000
  H   H1877     1.0  0.52849  0.77688  0.72743  1.0000
  H   H1878     1.0  0.95117  0.84231  0.56957  1.0000
  N   N59       1.0  0.78244  0.69682  0.88831  1.0000
  H   H1879     1.0  0.93251  0.69944  0.72898  1.0000
  H   H1880     1.0  0.52287  0.75604  0.90059  1.0000
  H   H1881     1.0  0.56080  0.98083  0.80578  1.0000
  C   C1079     1.0  0.81458  0.69330  0.83943  1.0000
  H   H1882     1.0  0.91536  0.88184  0.50137  1.0000
  H   H1883     1.0  0.51410  0.72609  0.89593  1.0000
  H   H1884     1.0  0.89904  0.75012  0.82561  1.0000
  C   C1080     1.0  0.88902  0.68907  0.70572  1.0000
  H   H1885     1.0  0.57163  0.88310  0.51993  1.0000
  H   H1886     1.0  0.88697  0.72241  0.87403  1.0000
  H   H1887     1.0  0.56584  0.74654  0.79532  1.0000
  H   H1888     1.0  0.78644  0.74140  0.64135  1.0000
  H   H1889     1.0  0.50815  0.87179  0.54058  1.0000
  H   H1890     1.0  0.57671  0.93816  0.97672  1.0000
  C   C1081     1.0  0.79175  0.75288  0.94768  1.0000
  H   H1891     1.0  0.74919  0.68156  0.56216  1.0000
  C   C1082     1.0  0.95530  0.86080  0.51850  1.0000
  C   C1083     1.0  0.60157  0.86209  0.50423  1.0000
  C   C1084     1.0  0.53287  0.71783  0.82839  1.0000
  C   C1085     1.0  0.53046  0.80346  0.52440  1.0000
  S   S250      1.0  0.61693  0.79518  0.49458  1.0000
  H   H1892     1.0  0.70055  0.71644  0.51148  1.0000
  H   H1893     1.0  0.95621  0.87964  0.51143  1.0000
  C   C1086     1.0  0.79525  0.68057  0.55826  1.0000
  C   C1087     1.0  0.56554  0.92469  0.84280  1.0000
  C   C1088     1.0  0.90683  0.68295  0.56983  1.0000
  H   H1894     1.0  0.89450  0.72441  0.72268  1.0000
  H   H1895     1.0  0.93655  0.87076  0.56745  1.0000
  H   H1896     1.0  0.98490  0.66226  0.82575  1.0000
  H   H1897     1.0  0.97014  0.86430  0.86356  1.0000
  H   H1898     1.0  0.56957  0.69041  0.83940  1.0000
  H   H1899     1.0  0.96084  0.72268  0.80859  1.0000
  H   H1900     1.0  0.96665  0.77231  0.52026  1.0000
  H   H1901     1.0  0.87237  0.88858  0.48593  1.0000
  C   C1089     1.0  0.98874  0.86803  0.85786  1.0000
  H   H1902     1.0  0.56504  0.96104  0.86407  1.0000
  C   C1090     1.0  0.95598  0.80850  0.50986  1.0000
  H   H1903     1.0  0.52718  0.98542  0.67802  1.0000
  H   H1904     1.0  0.76566  0.72668  0.94505  1.0000
  C   C1091     1.0  0.95028  0.78334  0.51960  1.0000
  H   H1905     1.0  0.93372  0.75389  0.79085  1.0000
  H   H1906     1.0  0.52144  0.75080  0.77774  1.0000
  C   C1092     1.0  0.94387  0.74794  0.73616  1.0000
  H   H1907     1.0  0.91859  0.73536  0.60521  1.0000
  H   H1908     1.0  0.55681  0.87459  0.57742  1.0000
  C   C1093     1.0  0.97336  0.87152  0.57827  1.0000
  H   H1909     1.0  0.95314  0.67165  0.78343  1.0000
  C   C1094     1.0  0.78969  0.71265  0.51407  1.0000
  H   H1910     1.0  0.71825  0.69491  0.48773  1.0000
  H   H1911     1.0  0.88149  0.70570  0.75558  1.0000
  H   H1912     1.0  0.51108  0.66970  0.87097  1.0000
  H   H1913     1.0  0.70641  0.68805  0.53108  1.0000
  H   H1914     1.0  0.75226  0.69105  0.92176  1.0000
  H   H1915     1.0  0.54823  0.67490  0.78945  1.0000
  C   C1095     1.0  0.91322  0.86260  0.50357  1.0000
  H   H1916     1.0  0.74915  0.66337  0.86447  1.0000
  H   H1917     1.0  0.56879  0.89009  0.94155  1.0000
  C   C1096     1.0  0.70661  0.77345  0.51419  1.0000
  C   C1097     1.0  0.52244  0.98491  0.70587  1.0000
  H   H1918     1.0  0.56200  0.94015  0.91212  1.0000
  H   H1919     1.0  0.78378  0.73450  0.88265  1.0000
  H   H1920     1.0  0.53147  0.73015  0.48946  1.0000
  C   C1098     1.0  0.53735  0.87497  0.57675  1.0000
  C   C1099     1.0  0.75612  0.69650  0.89399  1.0000
  C   C1100     1.0  0.49671  0.71515  0.48493  1.0000
  H   H1921     1.0  0.74810  0.71451  0.89156  1.0000
  H   H1922     1.0  0.60805  0.85822  0.53167  1.0000
  C   C1101     1.0  0.95222  0.72113  0.62497  1.0000
  C   C1102     1.0  0.51815  0.74219  0.88102  1.0000
  H   H1923     1.0  0.56909  0.84256  0.54665  1.0000
  H   H1924     1.0  0.78494  0.73168  0.51419  1.0000
  C   C1103     1.0  0.54361  0.76847  0.74178  1.0000
  H   H1925     1.0  0.58501  0.92419  0.84143  1.0000
  H   H1926     1.0  0.70577  0.66971  0.86057  1.0000
  H   H1927     1.0  0.50946  0.89981  0.59296  1.0000
  H   H1928     1.0  0.49837  0.78762  0.54258  1.0000
  C   C1104     1.0  0.49103  0.90159  0.89792  1.0000
  S   S251      1.0  0.58204  0.69491  0.94524  1.0000
  H   H1929     1.0  0.53427  0.82738  0.56801  1.0000
  N   N60       1.0  0.55728  0.91142  0.87490  1.0000
  C   C1105     1.0  0.56441  0.88592  0.86940  1.0000
  C   C1106     1.0  0.53078  0.91430  0.87629  1.0000
  H   H1930     1.0  0.49121  0.66371  0.93746  1.0000
  C   C1107     1.0  0.56861  0.92182  0.90772  1.0000
  C   C1108     1.0  0.56471  0.90917  0.94344  1.0000
  C   C1109     1.0  0.59115  0.88026  0.86644  1.0000
  C   C1110     1.0  0.96591  0.74414  0.62269  1.0000
  C   C1111     1.0  0.51699  0.89451  0.89406  1.0000
  C   C1112     1.0  0.78468  0.72775  0.93956  1.0000
  H   H1931     1.0  0.53858  0.95350  0.84074  1.0000
  C   C1113     1.0  0.86989  0.86948  0.48896  1.0000
  H   H1932     1.0  0.50231  0.74833  0.86590  1.0000
  H   H1933     1.0  0.55581  0.87909  0.84479  1.0000
  H   H1934     1.0  0.55790  0.87484  0.89109  1.0000
  H   H1935     1.0  0.52559  0.93127  0.88938  1.0000
  H   H1936     1.0  0.52330  0.91536  0.84874  1.0000
  C   C1114     1.0  0.55797  0.95109  0.84104  1.0000
  H   H1937     1.0  0.78786  0.75719  0.97605  1.0000
  H   H1938     1.0  0.58785  0.92324  0.90371  1.0000
  H   H1939     1.0  0.58753  0.84688  0.83849  1.0000
  H   H1940     1.0  0.96451  0.71044  0.76490  1.0000
  H   H1941     1.0  0.54629  0.91215  0.95208  1.0000
  H   H1942     1.0  0.59856  0.88833  0.84239  1.0000
  H   H1943     1.0  0.49273  0.83126  0.48954  1.0000
  C   C1115     1.0  0.52894  0.89872  0.59182  1.0000
  C   C1116     1.0  0.92595  0.72659  0.62941  1.0000
  H   H1944     1.0  0.51794  0.87843  0.87717  1.0000
  H   H1945     1.0  0.52398  0.88976  0.92068  1.0000
  H   H1946     1.0  0.78857  0.67337  0.58368  1.0000
  H   H1947     1.0  0.82364  0.70914  0.84877  1.0000
  C   C1117     1.0  0.61473  0.68627  0.81808  1.0000
  H   H1948     1.0  0.81424  0.68053  0.90991  1.0000
  H   H1949     1.0  0.91864  0.68272  0.76153  1.0000
  H   H1950     1.0  0.96236  0.75446  0.64746  1.0000
  H   H1951     1.0  0.86477  0.86591  0.51688  1.0000
  H   H1952     1.0  0.55778  0.76470  0.72215  1.0000
  H   H1953     1.0  0.97487  0.89011  0.57032  1.0000
  H   H1954     1.0  0.94178  0.78589  0.74511  1.0000
  H   H1955     1.0  0.94603  0.68200  0.82774  1.0000
  H   H1956     1.0  0.92261  0.73807  0.65303  1.0000
  N   N61       1.0  0.77946  0.70078  0.54612  1.0000
  H   H1957     1.0  0.51970  0.67597  0.71488  1.0000
  H   H1958     1.0  0.90745  0.86014  0.53153  1.0000
  C   C1118     1.0  0.77773  0.71822  0.57678  1.0000
  H   H1959     1.0  0.58678  0.96196  0.80754  1.0000
  H   H1960     1.0  0.53124  0.86139  0.59520  1.0000
  H   H1961     1.0  0.54231  0.75401  0.84206  1.0000
  C   C1119     1.0  0.80131  0.72706  0.59197  1.0000
  C   C1120     1.0  0.51024  0.98300  0.77749  1.0000
  H   H1962     1.0  0.55920  0.91618  0.81769  1.0000
  H   H1963     1.0  0.79444  0.71627  0.95851  1.0000
  H   H1964     1.0  0.80969  0.70703  0.78559  1.0000
  C   C1121     1.0  0.79732  0.74713  0.61879  1.0000
  C   C1122     1.0  0.51664  0.69043  0.76887  1.0000
  H   H1965     1.0  0.53192  0.88631  0.52179  1.0000
  C   C1123     1.0  0.90664  0.66539  0.59603  1.0000
  C   C1124     1.0  0.88669  0.66267  0.61692  1.0000
  H   H1966     1.0  0.76805  0.71066  0.59947  1.0000
  H   H1967     1.0  0.76731  0.73415  0.56861  1.0000
  C   C1125     1.0  0.50003  0.83675  0.95380  1.0000
  H   H1968     1.0  0.61059  0.87769  0.49432  1.0000
  C   C1126     1.0  0.55672  0.73335  0.77855  1.0000
  H   H1969     1.0  0.51321  0.83373  0.93243  1.0000
  C   C1127     1.0  0.51180  0.67151  0.74083  1.0000
  C   C1128     1.0  0.52609  0.82819  0.54095  1.0000
  H   H1970     1.0  0.81249  0.73329  0.57016  1.0000
  H   H1971     1.0  0.81096  0.71288  0.60657  1.0000
  H   H1972     1.0  0.60072  0.88651  0.89043  1.0000
  C   C1129     1.0  0.54334  0.69208  0.77684  1.0000
  H   H1973     1.0  0.55002  0.78101  0.76228  1.0000
  H   H1974     1.0  0.56105  0.95289  0.78307  1.0000
  H   H1975     1.0  0.71634  0.66851  0.90584  1.0000
  H   H1976     1.0  0.92477  0.71735  0.83803  1.0000
  H   H1977     1.0  0.58944  0.84453  0.88661  1.0000
  H   H1978     1.0  0.91659  0.71005  0.63314  1.0000
  C   C1130     1.0  0.52656  0.84842  0.48223  1.0000
  H   H1979     1.0  0.52250  0.78566  0.57394  1.0000
  H   H1980     1.0  0.78172  0.76546  0.93048  1.0000
  H   H1981     1.0  0.53531  0.91322  0.57527  1.0000
  N   N62       1.0  0.55115  0.71218  0.80043  1.0000
  H   H1982     1.0  0.88148  0.73418  0.79437  1.0000
  H   H1983     1.0  0.50862  0.70713  0.75942  1.0000
  H   H1984     1.0  0.73040  0.71964  0.55865  1.0000
  H   H1985     1.0  0.92214  0.68457  0.55331  1.0000
  H   H1986     1.0  0.61526  0.85018  0.86108  1.0000
  C   C1131     1.0  0.95332  0.71001  0.78905  1.0000
  H   H1987     1.0  0.81032  0.72109  0.89929  1.0000
  H   H1988     1.0  0.52618  0.70678  0.96032  1.0000
  H   H1989     1.0  0.86278  0.73865  0.85371  1.0000
  H   H1990     1.0  0.56751  0.83012  0.50350  1.0000
  H   H1991     1.0  0.98143  0.85963  0.92914  1.0000
  H   H1992     1.0  0.94070  0.73584  0.71343  1.0000
  H   H1993     1.0  0.72957  0.78133  0.55872  1.0000
  C   C1132     1.0  0.53586  0.74591  0.75921  1.0000
  C   C1133     1.0  0.93328  0.82420  0.50808  1.0000
  C   C1134     1.0  0.79087  0.72046  0.90064  1.0000
  H   H1994     1.0  0.95444  0.71031  0.60040  1.0000
  H   H1995     1.0  0.80924  0.71194  0.51566  1.0000
  H   H1996     1.0  0.52438  0.80236  0.49629  1.0000
  C   C1135     1.0  0.71636  0.67896  0.88103  1.0000
  C   C1136     1.0  0.59606  0.85385  0.86300  1.0000
  H   H1997     1.0  0.79031  0.68037  0.93902  1.0000
  C   C1137     1.0  0.59365  0.69448  0.79557  1.0000
  H   H1998     1.0  0.87167  0.69385  0.69368  1.0000
  H   H1999     1.0  0.92130  0.81541  0.48900  1.0000
  C   C1138     1.0  0.74982  0.77457  0.51118  1.0000
  H   H2000     1.0  0.50697  0.83093  0.54588  1.0000
  H   H2001     1.0  0.94189  0.78289  0.54624  1.0000
  C   C1139     1.0  0.92805  0.74245  0.76824  1.0000
  H   H2002     1.0  0.78092  0.67809  0.83743  1.0000
  H   H2003     1.0  0.69072  0.77541  0.52966  1.0000
  C   C1140     1.0  0.52761  0.87095  0.53834  1.0000
  H   H2004     1.0  0.58812  0.67924  0.77929  1.0000
  H   H2005     1.0  0.55407  0.73207  0.87248  1.0000
  H   H2006     1.0  0.97282  0.85288  0.51165  1.0000
  H   H2007     1.0  0.90233  0.68878  0.68424  1.0000
  H   H2008     1.0  0.88855  0.83667  0.48231  1.0000
  S   S252      1.0  0.83390  0.81258  0.50399  1.0000
  H   H2009     1.0  0.81086  0.75481  0.94347  1.0000
  C   C1141     1.0  0.53869  0.73737  0.85573  1.0000
  H   H2010     1.0  0.51578  0.72304  0.81605  1.0000
  H   H2011     1.0  0.55273  0.69211  0.75089  1.0000
  H   H2012     1.0  0.96841  0.81501  0.53033  1.0000
  C   C1142     1.0  0.51766  0.78490  0.54523  1.0000
  H   H2013     1.0  0.81017  0.67529  0.78826  1.0000
  C   C1143     1.0  0.57503  0.86690  0.50400  1.0000
  H   H2014     1.0  0.95199  0.77695  0.70176  1.0000
  C   C1144     1.0  0.52346  0.65584  0.86357  1.0000
  H   H2015     1.0  0.50546  0.98251  0.80532  1.0000
  N   N63       1.0  0.53553  0.84836  0.52026  1.0000
  H   H2016     1.0  0.56946  0.72843  0.75727  1.0000
  H   H2017     1.0  0.50746  0.68559  0.79357  1.0000
  S   S253      1.0  0.84601  0.71492  0.97840  1.0000
  H   H2018     1.0  0.96265  0.74650  0.74419  1.0000
  H   H2019     1.0  0.57365  0.98382  0.72998  1.0000
  C   C1145     1.0  0.79914  0.65996  0.53164  1.0000
  H   H2020     1.0  0.52920  0.73457  0.73743  1.0000
  S   S254      1.0  0.49641  0.87499  0.72141  1.0000
  C   C1146     1.0  0.95718  0.68494  0.80420  1.0000
  H   H2021     1.0  0.74245  0.72576  0.51592  1.0000
  H   H2022     1.0  0.59982  0.70818  0.77741  1.0000
  H   H2023     1.0  0.81324  0.68665  0.56417  1.0000
  H   H2024     1.0  0.75478  0.67977  0.51611  1.0000
  H   H2025     1.0  0.49651  0.78992  0.83247  1.0000
  S   S255      1.0  0.61581  0.73694  0.48800  1.0000
  H   H2026     1.0  0.88809  0.67116  0.71694  1.0000
  H   H2027     1.0  0.92448  0.82332  0.53444  1.0000
  H   H2028     1.0  0.95819  0.71047  0.64815  1.0000
  C   C1147     1.0  0.71397  0.70201  0.51468  1.0000
  H   H2029     1.0  0.50238  0.79967  0.96481  1.0000
  C   C1148     1.0  0.88617  0.66006  0.87308  1.0000
  H   H2030     1.0  0.59918  0.91598  0.96649  1.0000
  C   C1149     1.0  0.79494  0.67826  0.91042  1.0000
  H   H2031     1.0  0.60971  0.67212  0.83644  1.0000
  H   H2032     1.0  0.70791  0.69646  0.88630  1.0000
  C   C1150     1.0  0.56729  0.96230  0.80729  1.0000
  N   N64       1.0  0.93618  0.84934  0.49718  1.0000
  H   H2033     1.0  0.49570  0.71217  0.51409  1.0000
  H   H2034     1.0  0.98083  0.73291  0.68920  1.0000
  Fe  Fe128     1.0  0.64965  0.68156  0.96298  1.0000
  H   H2035     1.0  0.94122  0.65795  0.96940  1.0000
  C   C1151     1.0  0.58034  0.91904  0.97300  1.0000
  H   H2036     1.0  0.74052  0.68970  0.84130  1.0000
  H   H2037     1.0  0.55078  0.66831  0.89848  1.0000
  H   H2038     1.0  0.82341  0.67760  0.85132  1.0000
  C   C1152     1.0  0.88251  0.65642  0.83625  1.0000
  H   H2039     1.0  0.62890  0.67925  0.80046  1.0000
  H   H2040     1.0  0.49254  0.67002  0.73699  1.0000
  H   H2041     1.0  0.49056  0.86284  0.48917  1.0000
  H   H2042     1.0  0.49198  0.75201  0.49339  1.0000
  H   H2043     1.0  0.93829  0.77569  0.49938  1.0000
  H   H2044     1.0  0.96500  0.80779  0.48378  1.0000
  H   H2045     1.0  0.80935  0.66583  0.50848  1.0000
  H   H2046     1.0  0.53164  0.69881  0.48374  1.0000
  H   H2047     1.0  0.91054  0.65514  0.91670  1.0000
  H   H2048     1.0  0.52186  0.86285  0.97874  1.0000
  S   S256      1.0  0.83643  0.75694  0.47974  1.0000
