data_image0
_chemical_formula_structural       H2S2FeSH3FeHSFeS2CHFeS3H2SFeS2FeS2FeSFeS3C6H10C7H4C6H5C8H7CSHNC5FeC2HCHCHCH6CH6CH3CH3CH4NCHC3H3C2HCNCSC2HC2H3C2HCFeH4NH14CH5C4H7CHC3H8FeHCH5NH2CHCH3SHCH3C5HCH3CSCH2NH3CH2CHC3H5CH2CHNHCH5CHSC3HCHC3H5CFeH5C2H6C2H6C2HCH5CH4CH8C3H6CH4CFeSHFeSFeSHFeHSFeS2C2FeS3CFeSFeS2FeS2FeSFeS3C6H5CH3CHC6H4C6H3NHCH2CH2C2H6CHNHCH4C2H2CH6C4HCH3NH3CH4SC2SCHCH6CHCH4C2H5C2HC3H2CHC3H15CH5CHCH5C2NC2HC2H2C3HSCH2C4HCH5CH4CH3CH2C2H2C3HCHCHCH6CHC2HCH6CHFeH4CH2CNH3C2HCHC2HCSH6CH8CHCH3SH4NCH6C2H3CHCNCH2FeCH3SHSHSC3FeSCFeSHFeHFeHS2CHS2FeSHC3HNH2C3HCH4SCHCHC4H5CHC4HC2HCH5C2FeCH6NCH3CHSC3H5CHCH4CSH3CH4SH6CHC2H5CH2C2SCHC2HFeH3FeHCHCH2C3H3SCH3CHCHCH16NC2HCHC2HC2SCHCH2FeH3CH2C2HC2HCH2CSHC2FeSHFeCSC2H3SHCS2H3C2H3CH2C2HC5H2NH2CHFeS2CH2CHC2SC2H6CH2CHCNH5CH6CSCH2C3H2C2H3CH12NC2HC2H2CHCHCH4C2H11SNCHC2HSHC3HNH4SH3CH2C3H4CH3CH3CH5FeHCFeHFeCH2FeHCHCH2C7H5CH3S2C2SC2H2CHCH6CH4FeS2FeHSFeCFeS3HSH2FeSHSCFeS2FeS2FeS2FeSFeS3H5C7H4C6H4C6H4C6H4C2HCHC2NH6NH6CH4CH3CHNH2CHC2HNC6H4C2HCH11CHCH7C3HC2H3CH4SH5SH3CH2CH9CHC2H2CH2SCHCH5CHCHCHC2HCH2CSCH4CH6C5HCH10C2FeH2CHCHNCH4CNCH2CH2CHSH4CH2CHCH2C2H6CH2CH2C4H3FeS2FeS2FeCFeS3FeS3FeSFeHSHSHFeS2FeS2FeSFeS3H4CHC6H4C6H4C6H4C6H4CH2CH2SH2SHCH2CH6CH3SH3CNH2CH3CH2CH6FeCHC3H3C2H2C2NHCH2CHCH3SNC5HC3H2CH8CHC3H2CH6C2H2CHCH11NC8HC3H17C2H9NCHCH2C2H2C2H8CH6CHCH7NC7H2C3H2CHC3H9CH6C2H8CH2C2H2C2SH2S2FeSHS2H2SHFeS2FeS2FeSFeS3FeS2FeHFeS2FeC6H4CH3SHSHC3HSH2CHFeC7H4C6H5C3H4CHNC2H4NC4H2C5H13CH7CHCH6C4H2CH5CH2CSH6CH2CH4CNHC3HC2H2CHCHCH8NH5CH3C2H4CH2FeHNCHC5HC2H6C3H2CHCH6C2SNCHC3H2C3H4SHCH8CH2C2H4CH10CHCH2C2H2CHCH2CHC2H7C2H3C2HCH4CSFeCH4CH4SHCS2FeSH5SHFeS2FeS2FeSFeS3FeHSHNH2SC7H8C2SCSCHCFeH2CH3C6H4C6H4CHC2H2CH8NC7H2CHCH15CHSH4CH3C2HC2HCH2CNH2C2HCH2CHCHCSH8C4H3FeHC2HCH4FeC3HCH2CFeHCH7FeHCHCH10C2SH6C2H4CHCH2SC4H3CH2C2H2NH2CH2CHCH2C2H6CH2C2SHC2H5CHSC2HCH2C4HFeSH3SFeS2FeHFeS3FeCSH2SHCSC2H7CHCS2HC2HCH2CH2CHC3H2CH4CH3C2H2CH6C2H14CHCHSC5NH2SFeH3CHCHC3H3C2H2CH7CH2CHC2H4C2HFeH3NC10H15CH4CH2CSH5CSH2C2H3C2HC2H6C2HC4FeS2HCSFe2SFeSH2S2FeHSH5SC2H3CSHC2HCH3C3H3CHCH2C2H2CH4CSH2CHC3HCH4CH5CHCHNC4HNCHFeH2CHCH5SH3C2HCH2NCH6CSH7CHC2NHC9HCH5CH4CH6CH4CHFeCH2C2HC2HFeH2C2H3SH2CHCH8CH2CH3CH3C2H2CHNC2H4CHCSH2C3H7SH3CH3CHCFeC2HC4H6C3FeS2FeS2HCFeS3FeS2CSH2CHFeS2FeS2FeS2FeSFeS3CH5CNSCHC6H4C6H3C7H4C6H4CH3NC12H29CH2C2H2SH2CHSH2CH3CH2CHC2H3NH2C3H2CH2CH2CFeHFeHCH2CHC2H3CH2CHNC7H18CHNC2H7CH3CH2CH11C2H4NH4CSHCH3C2H3CH2CHCHCHCH2CFeHCHCHCH4CH2CH7C3H3C2HCH3CH2CHCHCH3CHC3HCHCH2NH3C2NHCHC2H2CHC2H3FeCH4C3HFeHSFeS2H2FeS3CSHFeSFeSH2FeSHFeS2FeS2FeSFeS3CHFeH3SC3HC6H4C6H4C6H4C6H4C2HSNC10H26CHCHC3H2CH3C3H2C2H4CHCH7NH3CHC2SC2H2CNC9H2CH16CH3C3H7CH5CH2C2HCH4CH5CH3NH3CH4CSHC3NH2C3H6C2H5CH3CH2CH6CH4FeH4SCH3
_chemical_formula_sum              "H2048 S256 Fe128 C1152 N64"
_cell_length_a       53.4881
_cell_length_b       54.2182
_cell_length_c       40.3907
_cell_angle_alpha    90.1038
_cell_angle_beta     90.0566
_cell_angle_gamma    89.6126

_space_group_name_H-M_alt    "P 1"
_space_group_IT_number       1

loop_
  _space_group_symop_operation_xyz
  'x, y, z'

loop_
  _atom_site_type_symbol
  _atom_site_label
  _atom_site_symmetry_multiplicity
  _atom_site_fract_x
  _atom_site_fract_y
  _atom_site_fract_z
  _atom_site_occupancy
  H   H1        1.0  0.05977  0.03384  0.19143  1.0000
  H   H2        1.0  0.19781  0.26091  0.17824  1.0000
  S   S1        1.0  0.03499  0.06515  0.41724  1.0000
  S   S2        1.0  0.01520  0.11362  0.37599  1.0000
  Fe  Fe1       1.0  0.04223  0.10631  0.41780  1.0000
  S   S3        1.0  0.08118  0.12331  0.41621  1.0000
  H   H3        1.0  0.03219  0.26097  0.45809  1.0000
  H   H4        1.0  0.30152  0.32629  0.98208  1.0000
  H   H5        1.0  0.29159  0.31768  0.30282  1.0000
  Fe  Fe2       1.0  0.16146  0.27845  0.03661  1.0000
  H   H6        1.0  0.40013  0.14377  0.39154  1.0000
  S   S4        1.0  0.14164  0.31551  0.04395  1.0000
  Fe  Fe3       1.0  0.20013  0.24231  0.06721  1.0000
  S   S5        1.0  0.19204  0.21414  0.02717  1.0000
  S   S6        1.0  0.22892  0.22947  0.10687  1.0000
  C   C1        1.0  0.04053  0.28237  0.03287  1.0000
  H   H7        1.0  0.32474  0.12633  0.41304  1.0000
  Fe  Fe4       1.0  0.15134  0.22333  0.03296  1.0000
  S   S7        1.0  0.12049  0.19464  0.03591  1.0000
  S   S8        1.0  0.20343  0.27371  0.03064  1.0000
  S   S9        1.0  0.15885  0.24902  0.07584  1.0000
  H   H8        1.0  0.04026  0.02031  0.32221  1.0000
  H   H9        1.0  0.33548  0.18116  0.42601  1.0000
  S   S10       1.0  0.46289  0.12398  0.38501  1.0000
  Fe  Fe5       1.0  0.37329  0.27643  0.30835  1.0000
  S   S11       1.0  0.37759  0.25735  0.25902  1.0000
  S   S12       1.0  0.39244  0.31401  0.31176  1.0000
  Fe  Fe6       1.0  0.33862  0.23600  0.33355  1.0000
  S   S13       1.0  0.34117  0.21425  0.28608  1.0000
  S   S14       1.0  0.31612  0.21781  0.37448  1.0000
  Fe  Fe7       1.0  0.38242  0.22259  0.28913  1.0000
  S   S15       1.0  0.41264  0.19383  0.27683  1.0000
  Fe  Fe8       1.0  0.33586  0.25075  0.26014  1.0000
  S   S16       1.0  0.30868  0.26268  0.21803  1.0000
  S   S17       1.0  0.38026  0.24198  0.33820  1.0000
  S   S18       1.0  0.33131  0.27208  0.30796  1.0000
  C   C2        1.0  0.45340  0.14524  0.35384  1.0000
  C   C3        1.0  0.44261  0.16793  0.36327  1.0000
  C   C4        1.0  0.43138  0.18362  0.33963  1.0000
  C   C5        1.0  0.42984  0.17635  0.30648  1.0000
  C   C6        1.0  0.44172  0.15428  0.29674  1.0000
  C   C7        1.0  0.45356  0.13885  0.32024  1.0000
  H   H10       1.0  0.44254  0.17317  0.38913  1.0000
  H   H11       1.0  0.42332  0.20109  0.34712  1.0000
  H   H12       1.0  0.44094  0.14860  0.27107  1.0000
  H   H13       1.0  0.46157  0.12138  0.31260  1.0000
  H   H14       1.0  0.06354  0.02511  0.14865  1.0000
  H   H15       1.0  0.49424  0.16898  0.39312  1.0000
  H   H16       1.0  0.23698  0.18019  0.01296  1.0000
  H   H17       1.0  0.40988  0.29949  0.37828  1.0000
  H   H18       1.0  0.48787  0.18629  0.28880  1.0000
  H   H19       1.0  0.47307  0.10582  0.04137  1.0000
  C   C8        1.0  0.48083  0.27740  0.33319  1.0000
  C   C9        1.0  0.25088  0.23929  0.13773  1.0000
  C   C10       1.0  0.25679  0.26411  0.14302  1.0000
  C   C11       1.0  0.27454  0.27079  0.16746  1.0000
  C   C12       1.0  0.28672  0.25286  0.18710  1.0000
  C   C13       1.0  0.28097  0.22802  0.18159  1.0000
  C   C14       1.0  0.26330  0.22134  0.15707  1.0000
  H   H20       1.0  0.24761  0.27821  0.12840  1.0000
  H   H21       1.0  0.27877  0.29007  0.17133  1.0000
  H   H22       1.0  0.29014  0.21392  0.19622  1.0000
  H   H23       1.0  0.25907  0.20206  0.15320  1.0000
  C   C15       1.0  0.24907  0.25476  0.42539  1.0000
  C   C16       1.0  0.26482  0.26859  0.40482  1.0000
  C   C17       1.0  0.28550  0.25751  0.38917  1.0000
  C   C18       1.0  0.29057  0.23249  0.39402  1.0000
  C   C19       1.0  0.27510  0.21872  0.41505  1.0000
  C   C20       1.0  0.25434  0.22979  0.43065  1.0000
  H   H24       1.0  0.26077  0.28792  0.40059  1.0000
  H   H25       1.0  0.29749  0.26829  0.37335  1.0000
  H   H26       1.0  0.27891  0.19931  0.41880  1.0000
  H   H27       1.0  0.24211  0.21893  0.44607  1.0000
  H   H28       1.0  0.12268  0.29781  0.98052  1.0000
  C   C21       1.0  0.25408  0.30229  0.30643  1.0000
  C   C22       1.0  0.26657  0.30435  0.03816  1.0000
  C   C23       1.0  0.02394  0.01583  0.01460  1.0000
  C   C24       1.0  0.49602  0.01310  0.15040  1.0000
  C   C25       1.0  0.50160  0.01376  0.01151  1.0000
  C   C26       1.0  0.20643  0.27283  0.19749  1.0000
  C   C27       1.0  0.09414  0.14427  0.44534  1.0000
  C   C28       1.0  0.37858  0.04782  0.02096  1.0000
  H   H29       1.0  0.26934  0.26706  0.31944  1.0000
  H   H30       1.0  0.08838  0.15257  0.03099  1.0000
  H   H31       1.0  0.12700  0.15061  0.41578  1.0000
  H   H32       1.0  0.46992  0.22751  0.29088  1.0000
  H   H33       1.0  0.33787  0.17025  0.35903  1.0000
  H   H34       1.0  0.08165  0.02403  0.40969  1.0000
  H   H35       1.0  0.34265  0.13824  0.36341  1.0000
  C   C29       1.0  0.11572  0.31631  0.98443  1.0000
  S   S19       1.0  0.04216  0.03631  0.99105  1.0000
  H   H36       1.0  0.41443  0.06504  0.02267  1.0000
  N   N1        1.0  0.07605  0.23414  0.44165  1.0000
  C   C30       1.0  0.08208  0.15007  0.47509  1.0000
  C   C31       1.0  0.06471  0.21112  0.42673  1.0000
  C   C32       1.0  0.10381  0.23370  0.43456  1.0000
  C   C33       1.0  0.06545  0.25724  0.42608  1.0000
  C   C34       1.0  0.03734  0.26248  0.43167  1.0000
  Fe  Fe9       1.0  0.49957  0.10184  0.38551  1.0000
  C   C35       1.0  0.11167  0.22800  0.39828  1.0000
  C   C36       1.0  0.10982  0.31470  0.45644  1.0000
  H   H37       1.0  0.48476  0.23597  0.25210  1.0000
  C   C37       1.0  0.33355  0.25625  0.46457  1.0000
  H   H38       1.0  0.25203  0.30282  0.05769  1.0000
  C   C38       1.0  0.14009  0.22871  0.39458  1.0000
  H   H39       1.0  0.46058  0.30207  0.30186  1.0000
  C   C39       1.0  0.03498  0.00110  0.40176  1.0000
  H   H40       1.0  0.06106  0.21389  0.39981  1.0000
  H   H41       1.0  0.07822  0.19540  0.42842  1.0000
  H   H42       1.0  0.11343  0.21990  0.45065  1.0000
  H   H43       1.0  0.11226  0.25183  0.44062  1.0000
  H   H44       1.0  0.07608  0.27371  0.43455  1.0000
  H   H45       1.0  0.06807  0.25683  0.39880  1.0000
  C   C40       1.0  0.02861  0.01175  0.17111  1.0000
  H   H46       1.0  0.39133  0.07775  0.41182  1.0000
  H   H47       1.0  0.44790  0.00454  0.17611  1.0000
  H   H48       1.0  0.03985  0.27489  0.00740  1.0000
  H   H49       1.0  0.10360  0.24167  0.38085  1.0000
  H   H50       1.0  0.10564  0.20932  0.39046  1.0000
  H   H51       1.0  0.09587  0.01119  0.37302  1.0000
  C   C41       1.0  0.03037  0.28855  0.42028  1.0000
  H   H52       1.0  0.40283  0.18343  0.43890  1.0000
  H   H53       1.0  0.44785  0.00323  0.42199  1.0000
  H   H54       1.0  0.02644  0.01441  0.38404  1.0000
  C   C42       1.0  0.12907  0.17067  0.46196  1.0000
  H   H55       1.0  0.46572  0.01491  0.38766  1.0000
  H   H56       1.0  0.30310  0.28169  0.47076  1.0000
  H   H57       1.0  0.46528  0.00995  0.03400  1.0000
  C   C43       1.0  0.01260  0.04966  0.22198  1.0000
  H   H58       1.0  0.02336  0.00301  0.19499  1.0000
  H   H59       1.0  0.14524  0.22377  0.36878  1.0000
  H   H60       1.0  0.14723  0.24749  0.40008  1.0000
  H   H61       1.0  0.14916  0.21524  0.41156  1.0000
  N   N2        1.0  0.49659  0.31914  0.31003  1.0000
  C   C44       1.0  0.10838  0.17870  0.00101  1.0000
  H   H62       1.0  0.38776  0.14485  0.33954  1.0000
  C   C45       1.0  0.35876  0.14720  0.30312  1.0000
  C   C46       1.0  0.01837  0.07303  0.24168  1.0000
  C   C47       1.0  0.09251  0.15846  0.00603  1.0000
  H   H63       1.0  0.03706  0.17489  0.02127  1.0000
  H   H64       1.0  0.12319  0.30010  0.45152  1.0000
  H   H65       1.0  0.04864  0.32102  0.02421  1.0000
  C   C48       1.0  0.27618  0.31631  0.32116  1.0000
  C   C49       1.0  0.01589  0.14240  0.02962  1.0000
  H   H66       1.0  0.23912  0.30202  0.32544  1.0000
  C   C50       1.0  0.38321  0.14170  0.40729  1.0000
  N   N3        1.0  0.29699  0.23894  0.04982  1.0000
  C   C51       1.0  0.27769  0.25908  0.04497  1.0000
  S   S20       1.0  0.49081  0.03678  0.98279  1.0000
  C   C52       1.0  0.30982  0.24369  0.08264  1.0000
  C   C53       1.0  0.31681  0.23917  0.02321  1.0000
  H   H67       1.0  0.03493  0.29108  0.39366  1.0000
  C   C54       1.0  0.28773  0.28585  0.04431  1.0000
  C   C55       1.0  0.32621  0.22231  0.09665  1.0000
  H   H68       1.0  0.36479  0.04091  0.00263  1.0000
  H   H69       1.0  0.24753  0.17764  0.05519  1.0000
  H   H70       1.0  0.18233  0.24376  0.34577  1.0000
  C   C56       1.0  0.44457  0.10480  0.00304  1.0000
  C   C57       1.0  0.34087  0.23069  0.12715  1.0000
  H   H71       1.0  0.26344  0.25809  0.06508  1.0000
  C   C58       1.0  0.49621  0.20009  0.27201  1.0000
  Fe  Fe10      1.0  0.00569  0.07298  0.37820  1.0000
  H   H72       1.0  0.48155  0.02791  0.14866  1.0000
  H   H73       1.0  0.29575  0.24815  0.10207  1.0000
  H   H74       1.0  0.32208  0.26014  0.08100  1.0000
  H   H75       1.0  0.32796  0.25638  0.02478  1.0000
  N   N4        1.0  0.01051  0.03219  0.16232  1.0000
  H   H76       1.0  0.28588  0.13485  0.44422  1.0000
  H   H77       1.0  0.22055  0.28470  0.18541  1.0000
  H   H78       1.0  0.29642  0.29082  0.06834  1.0000
  H   H79       1.0  0.30165  0.28819  0.02425  1.0000
  H   H80       1.0  0.33993  0.21548  0.07823  1.0000
  H   H81       1.0  0.31435  0.20660  0.10437  1.0000
  H   H82       1.0  0.08082  0.28823  0.02940  1.0000
  H   H83       1.0  0.29700  0.16502  0.45552  1.0000
  H   H84       1.0  0.35384  0.12742  0.30552  1.0000
  H   H85       1.0  0.06901  0.03121  0.36922  1.0000
  H   H86       1.0  0.24544  0.22116  0.03735  1.0000
  H   H87       1.0  0.37262  0.19567  0.45034  1.0000
  H   H88       1.0  0.42913  0.10453  0.02132  1.0000
  H   H89       1.0  0.09963  0.31949  0.40502  1.0000
  C   C59       1.0  0.03285  0.30990  0.03405  1.0000
  H   H90       1.0  0.48404  0.09447  0.00197  1.0000
  H   H91       1.0  0.34162  0.15808  0.29744  1.0000
  H   H92       1.0  0.32801  0.23765  0.14665  1.0000
  H   H93       1.0  0.35165  0.21491  0.13750  1.0000
  H   H94       1.0  0.35419  0.24553  0.12058  1.0000
  C   C60       1.0  0.22242  0.24646  0.33678  1.0000
  C   C61       1.0  0.27139  0.22317  0.29694  1.0000
  C   C62       1.0  0.27642  0.19607  0.28877  1.0000
  C   C63       1.0  0.19937  0.25051  0.35847  1.0000
  H   H95       1.0  0.23853  0.25438  0.35007  1.0000
  H   H96       1.0  0.22511  0.22623  0.33414  1.0000
  H   H97       1.0  0.28943  0.23308  0.29502  1.0000
  H   H98       1.0  0.26535  0.22426  0.32303  1.0000
  H   H99       1.0  0.25900  0.18517  0.29110  1.0000
  H   H100      1.0  0.28389  0.19417  0.26322  1.0000
  H   H101      1.0  0.29046  0.18848  0.30639  1.0000
  C   C64       1.0  0.01500  0.03956  0.12684  1.0000
  H   H102      1.0  0.14734  0.17821  0.45689  1.0000
  C   C65       1.0  0.01846  0.16782  0.01373  1.0000
  C   C66       1.0  0.37518  0.11438  0.40592  1.0000
  C   C67       1.0  0.39758  0.09724  0.41178  1.0000
  H   H103      1.0  0.36721  0.10939  0.38151  1.0000
  H   H104      1.0  0.36138  0.11061  0.42569  1.0000
  H   H105      1.0  0.07203  0.25867  0.04579  1.0000
  H   H106      1.0  0.40486  0.22789  0.45053  1.0000
  H   H107      1.0  0.41164  0.09944  0.39175  1.0000
  H   H108      1.0  0.33145  0.25646  0.43719  1.0000
  H   H109      1.0  0.03657  0.20977  0.99467  1.0000
  H   H110      1.0  0.22307  0.28955  0.25410  1.0000
  Fe  Fe11      1.0  0.00490  0.07437  0.45411  1.0000
  H   H111      1.0  0.05318  0.01016  0.05062  1.0000
  C   C68       1.0  0.00912  0.30999  0.98050  1.0000
  H   H112      1.0  0.02618  0.21537  0.44628  1.0000
  H   H113      1.0  0.30855  0.15308  0.39768  1.0000
  H   H114      1.0  0.49312  0.32147  0.38152  1.0000
  H   H115      1.0  0.19160  0.28475  0.20842  1.0000
  H   H116      1.0  0.20337  0.24651  0.23665  1.0000
  N   N5        1.0  0.36362  0.16072  0.39826  1.0000
  H   H117      1.0  0.01781  0.14408  0.05691  1.0000
  H   H118      1.0  0.19702  0.27041  0.36449  1.0000
  C   C69       1.0  0.25325  0.18281  0.02969  1.0000
  H   H119      1.0  0.39006  0.14484  0.43295  1.0000
  C   C70       1.0  0.37105  0.15653  0.33488  1.0000
  H   H120      1.0  0.24744  0.31293  0.28468  1.0000
  H   H121      1.0  0.09986  0.07333  0.44498  1.0000
  H   H122      1.0  0.07037  0.12977  0.98323  1.0000
  S   S21       1.0  0.22243  0.26932  0.44236  1.0000
  H   H123      1.0  0.27406  0.32341  0.03866  1.0000
  C   C71       1.0  0.01409  0.05447  0.18416  1.0000
  H   H124      1.0  0.46485  0.31370  0.34216  1.0000
  H   H125      1.0  0.40660  0.10127  0.43597  1.0000
  H   H126      1.0  0.49190  0.03922  0.21457  1.0000
  C   C72       1.0  0.47480  0.30398  0.32179  1.0000
  C   C73       1.0  0.02912  0.18038  0.42199  1.0000
  C   C74       1.0  0.39690  0.22144  0.42666  1.0000
  C   C75       1.0  0.48459  0.00392  0.03461  1.0000
  C   C76       1.0  0.30290  0.14587  0.44926  1.0000
  H   H127      1.0  0.46489  0.07516  0.02799  1.0000
  C   C77       1.0  0.41705  0.31760  0.37265  1.0000
  H   H128      1.0  0.02307  0.18751  0.39747  1.0000
  H   H129      1.0  0.06914  0.28583  0.07129  1.0000
  H   H130      1.0  0.44827  0.12439  0.99668  1.0000
  C   C78       1.0  0.30783  0.23591  0.98705  1.0000
  S   S22       1.0  0.15155  0.25318  0.99477  1.0000
  C   C79       1.0  0.07292  0.23409  0.47882  1.0000
  H   H131      1.0  0.07027  0.24187  0.98570  1.0000
  H   H132      1.0  0.34840  0.26952  0.47151  1.0000
  N   N6        1.0  0.00876  0.31679  0.01681  1.0000
  H   H133      1.0  0.33063  0.22412  0.02735  1.0000
  H   H134      1.0  0.49532  0.00288  0.12642  1.0000
  H   H135      1.0  0.02035  0.06650  0.06928  1.0000
  C   C80       1.0  0.37622  0.18555  0.39730  1.0000
  H   H136      1.0  0.27686  0.21106  0.07718  1.0000
  H   H137      1.0  0.49285  0.29961  0.26335  1.0000
  C   C81       1.0  0.45771  0.26513  0.34795  1.0000
  H   H138      1.0  0.17500  0.31819  0.98755  1.0000
  C   C82       1.0  0.04057  0.20095  0.44289  1.0000
  C   C83       1.0  0.28434  0.21410  0.05172  1.0000
  C   C84       1.0  0.12124  0.32861  0.01395  1.0000
  H   H139      1.0  0.03842  0.01155  0.42505  1.0000
  H   H140      1.0  0.02603  0.24942  0.41682  1.0000
  H   H141      1.0  0.45193  0.27477  0.37103  1.0000
  H   H142      1.0  0.44189  0.26549  0.33006  1.0000
  H   H143      1.0  0.46203  0.24560  0.35410  1.0000
  C   C85       1.0  0.11753  0.15493  0.43875  1.0000
  H   H144      1.0  0.01690  0.06911  0.26860  1.0000
  H   H145      1.0  0.27821  0.27692  0.27953  1.0000
  C   C86       1.0  0.26145  0.20975  0.02875  1.0000
  H   H146      1.0  0.49711  0.03599  0.09079  1.0000
  N   N7        1.0  0.24184  0.26004  0.28079  1.0000
  H   H147      1.0  0.49568  0.27696  0.35233  1.0000
  C   C87       1.0  0.25223  0.23475  0.27242  1.0000
  H   H148      1.0  0.23669  0.22146  0.26859  1.0000
  H   H149      1.0  0.02605  0.03522  0.23004  1.0000
  H   H150      1.0  0.20425  0.24705  0.28989  1.0000
  H   H151      1.0  0.04507  0.19299  0.46755  1.0000
  H   H152      1.0  0.26859  0.17042  0.02126  1.0000
  C   C88       1.0  0.21885  0.25823  0.30228  1.0000
  H   H153      1.0  0.26254  0.23541  0.24848  1.0000
  S   S23       1.0  0.01454  0.11466  0.45797  1.0000
  C   C89       1.0  0.07780  0.01655  0.38460  1.0000
  C   C90       1.0  0.06723  0.27865  0.04563  1.0000
  C   C91       1.0  0.46682  0.00882  0.41388  1.0000
  H   H154      1.0  0.41186  0.22196  0.40758  1.0000
  C   C92       1.0  0.46808  0.09438  0.01954  1.0000
  H   H155      1.0  0.03215  0.06365  0.17853  1.0000
  C   C93       1.0  0.34318  0.16200  0.42418  1.0000
  C   C94       1.0  0.26187  0.27567  0.29659  1.0000
  C   C95       1.0  0.47684  0.22054  0.26668  1.0000
  H   H156      1.0  0.25793  0.30106  0.01356  1.0000
  H   H157      1.0  0.39210  0.18518  0.37987  1.0000
  H   H158      1.0  0.37712  0.17573  0.33013  1.0000
  H   H159      1.0  0.28326  0.30692  0.34375  1.0000
  H   H160      1.0  0.23073  0.24304  0.21158  1.0000
  C   C96       1.0  0.38699  0.19521  0.43057  1.0000
  Fe  Fe12      1.0  0.19292  0.24591  0.99168  1.0000
  H   H161      1.0  0.38525  0.03195  0.03602  1.0000
  H   H162      1.0  0.04064  0.30262  0.43492  1.0000
  H   H163      1.0  0.26692  0.25646  0.02178  1.0000
  H   H164      1.0  0.38156  0.23425  0.41935  1.0000
  H   H165      1.0  0.02801  0.27150  0.04906  1.0000
  C   C97       1.0  0.23414  0.27253  0.24883  1.0000
  C   C98       1.0  0.21852  0.25675  0.22421  1.0000
  H   H166      1.0  0.25097  0.27877  0.23491  1.0000
  H   H167      1.0  0.46062  0.21304  0.25286  1.0000
  H   H168      1.0  0.04277  0.16510  0.41825  1.0000
  H   H169      1.0  0.48666  0.26614  0.31162  1.0000
  H   H170      1.0  0.37202  0.14919  0.28214  1.0000
  H   H171      1.0  0.36314  0.19977  0.38750  1.0000
  C   C99       1.0  0.35254  0.15611  0.36439  1.0000
  C   C100      1.0  0.31976  0.14571  0.41871  1.0000
  H   H172      1.0  0.03186  0.31481  0.06076  1.0000
  H   H173      1.0  0.29157  0.24780  0.98122  1.0000
  H   H174      1.0  0.35096  0.15777  0.44915  1.0000
  H   H175      1.0  0.29818  0.19901  0.04735  1.0000
  H   H176      1.0  0.03077  0.12972  0.02049  1.0000
  H   H177      1.0  0.26498  0.21469  0.00269  1.0000
  C   C101      1.0  0.05661  0.01893  0.17312  1.0000
  C   C102      1.0  0.41087  0.32879  0.34251  1.0000
  H   H178      1.0  0.21002  0.27672  0.30555  1.0000
  C   C103      1.0  0.02593  0.01287  0.30629  1.0000
  H   H179      1.0  0.47290  0.02451  0.42960  1.0000
  H   H180      1.0  0.20165  0.24028  0.38211  1.0000
  H   H181      1.0  0.49753  0.19218  0.34194  1.0000
  H   H182      1.0  0.26077  0.30792  0.46199  1.0000
  H   H183      1.0  0.30284  0.21633  0.98263  1.0000
  C   C104      1.0  0.09521  0.06432  0.46887  1.0000
  H   H184      1.0  0.43750  0.32106  0.41864  1.0000
  H   H185      1.0  0.03409  0.04726  0.12391  1.0000
  H   H186      1.0  0.50038  0.02545  0.32196  1.0000
  H   H187      1.0  0.40654  0.12985  0.98040  1.0000
  C   C105      1.0  0.03442  0.00522  0.04319  1.0000
  H   H188      1.0  0.21816  0.32477  0.01057  1.0000
  H   H189      1.0  0.01474  0.02310  0.11043  1.0000
  H   H190      1.0  0.03767  0.07939  0.23647  1.0000
  H   H191      1.0  0.08143  0.04953  0.46394  1.0000
  H   H192      1.0  0.01249  0.17285  0.43481  1.0000
  H   H193      1.0  0.01001  0.29181  0.42361  1.0000
  H   H194      1.0  0.29454  0.25008  0.47229  1.0000
  H   H195      1.0  0.38630  0.09660  0.00156  1.0000
  C   C106      1.0  0.09647  0.32575  0.43012  1.0000
  C   C107      1.0  0.43271  0.32988  0.39547  1.0000
  C   C108      1.0  0.40075  0.05965  0.00336  1.0000
  H   H196      1.0  0.31281  0.13763  0.47079  1.0000
  H   H197      1.0  0.09260  0.00240  0.18514  1.0000
  H   H198      1.0  0.49013  0.99995  0.20212  1.0000
  H   H199      1.0  0.36929  0.06133  0.03771  1.0000
  H   H200      1.0  0.33928  0.23735  0.47211  1.0000
  H   H201      1.0  0.49943  0.19098  0.24769  1.0000
  C   C109      1.0  0.39233  0.08258  0.98294  1.0000
  H   H202      1.0  0.40985  0.04530  0.98798  1.0000
  H   H203      1.0  0.50380  0.06327  0.11421  1.0000
  H   H204      1.0  0.00483  0.08795  0.23550  1.0000
  H   H205      1.0  0.11257  0.05603  0.47923  1.0000
  C   C110      1.0  0.26620  0.27917  0.52047  1.0000
  Fe  Fe13      1.0  0.02802  0.05935  0.94767  1.0000
  S   S24       1.0  0.05655  0.06583  0.90741  1.0000
  H   H206      1.0  0.32661  0.26026  0.58314  1.0000
  Fe  Fe14      1.0  0.04650  0.10590  0.91429  1.0000
  S   S25       1.0  0.07336  0.13849  0.91175  1.0000
  Fe  Fe15      1.0  0.02405  0.06265  0.87193  1.0000
  S   S26       1.0  0.02566  0.04800  0.81789  1.0000
  H   H207      1.0  0.41550  0.00341  0.81363  1.0000
  Fe  Fe16      1.0  0.15317  0.28032  0.52072  1.0000
  H   H208      1.0  0.48321  0.24257  0.89270  1.0000
  S   S27       1.0  0.12251  0.30980  0.52309  1.0000
  Fe  Fe17      1.0  0.19729  0.25641  0.56165  1.0000
  S   S28       1.0  0.20273  0.22658  0.52298  1.0000
  S   S29       1.0  0.22259  0.26662  0.60643  1.0000
  C   C111      1.0  0.09381  0.16545  0.49854  1.0000
  C   C112      1.0  0.03017  0.02093  0.76003  1.0000
  Fe  Fe18      1.0  0.16026  0.22462  0.52014  1.0000
  S   S30       1.0  0.13238  0.19283  0.52409  1.0000
  S   S31       1.0  0.19442  0.28703  0.52409  1.0000
  S   S32       1.0  0.15526  0.25224  0.56157  1.0000
  C   C113      1.0  0.32847  0.24232  0.96242  1.0000
  Fe  Fe19      1.0  0.48929  0.10663  0.90193  1.0000
  S   S33       1.0  0.46721  0.14238  0.90958  1.0000
  Fe  Fe20      1.0  0.37357  0.27265  0.79613  1.0000
  S   S34       1.0  0.36773  0.23811  0.76575  1.0000
  S   S35       1.0  0.40416  0.30112  0.78751  1.0000
  Fe  Fe21      1.0  0.32869  0.26267  0.83926  1.0000
  S   S36       1.0  0.31963  0.22710  0.81348  1.0000
  S   S37       1.0  0.30998  0.28128  0.88324  1.0000
  Fe  Fe22      1.0  0.36114  0.21975  0.81492  1.0000
  S   S38       1.0  0.37510  0.18038  0.82312  1.0000
  Fe  Fe23      1.0  0.32641  0.24749  0.76551  1.0000
  S   S39       1.0  0.30117  0.23634  0.72105  1.0000
  S   S40       1.0  0.36957  0.25358  0.84499  1.0000
  S   S41       1.0  0.33298  0.28378  0.79170  1.0000
  C   C114      1.0  0.44153  0.15263  0.88547  1.0000
  C   C115      1.0  0.43288  0.17704  0.88917  1.0000
  C   C116      1.0  0.41249  0.18589  0.87040  1.0000
  C   C117      1.0  0.40048  0.17028  0.84790  1.0000
  C   C118      1.0  0.40894  0.14578  0.84462  1.0000
  C   C119      1.0  0.42940  0.13699  0.86323  1.0000
  H   H209      1.0  0.44207  0.18920  0.90655  1.0000
  H   H210      1.0  0.40606  0.20473  0.87329  1.0000
  H   H211      1.0  0.39973  0.13359  0.82729  1.0000
  H   H212      1.0  0.43584  0.11816  0.86023  1.0000
  H   H213      1.0  0.11968  0.09169  0.54787  1.0000
  C   C120      1.0  0.42724  0.29997  0.84917  1.0000
  H   H214      1.0  0.18205  0.29037  0.93751  1.0000
  H   H215      1.0  0.41842  0.28230  0.85264  1.0000
  H   H216      1.0  0.15293  0.30570  0.94014  1.0000
  C   C121      1.0  0.01692  0.18507  0.92071  1.0000
  H   H217      1.0  0.50285  0.24232  0.92932  1.0000
  C   C122      1.0  0.24484  0.25767  0.63759  1.0000
  C   C123      1.0  0.25320  0.23331  0.64160  1.0000
  C   C124      1.0  0.27056  0.22727  0.66691  1.0000
  C   C125      1.0  0.28005  0.24541  0.68855  1.0000
  C   C126      1.0  0.27198  0.26982  0.68417  1.0000
  C   C127      1.0  0.25447  0.27583  0.65906  1.0000
  H   H218      1.0  0.24607  0.21905  0.62546  1.0000
  H   H219      1.0  0.27659  0.20832  0.66988  1.0000
  H   H220      1.0  0.27914  0.28412  0.70018  1.0000
  H   H221      1.0  0.24833  0.29476  0.65622  1.0000
  C   C128      1.0  0.23803  0.25005  0.92690  1.0000
  C   C129      1.0  0.24814  0.24001  0.89778  1.0000
  C   C130      1.0  0.27057  0.24902  0.88469  1.0000
  C   C131      1.0  0.28279  0.26847  0.90037  1.0000
  C   C132      1.0  0.27282  0.27847  0.92968  1.0000
  C   C133      1.0  0.25057  0.26911  0.94315  1.0000
  H   H222      1.0  0.23856  0.22517  0.88529  1.0000
  H   H223      1.0  0.27818  0.24117  0.86222  1.0000
  H   H224      1.0  0.28222  0.29358  0.94183  1.0000
  N   N8        1.0  0.01488  0.19068  0.95722  1.0000
  H   H225      1.0  0.26120  0.24202  0.56429  1.0000
  C   C134      1.0  0.02915  0.01986  0.79491  1.0000
  H   H226      1.0  0.21262  0.31826  0.95116  1.0000
  H   H227      1.0  0.19326  0.23261  0.65954  1.0000
  C   C135      1.0  0.01648  0.16633  0.97541  1.0000
  H   H228      1.0  0.12739  0.13656  0.54573  1.0000
  H   H229      1.0  0.42770  0.25230  0.80806  1.0000
  C   C136      1.0  0.08721  0.15309  0.94657  1.0000
  C   C137      1.0  0.10299  0.17340  0.94155  1.0000
  H   H230      1.0  0.41468  0.22190  0.81213  1.0000
  H   H231      1.0  0.48795  0.28811  0.88878  1.0000
  H   H232      1.0  0.03259  0.05485  0.63398  1.0000
  H   H233      1.0  0.10702  0.17934  0.91658  1.0000
  H   H234      1.0  0.38996  0.08525  0.91475  1.0000
  H   H235      1.0  0.50292  0.21217  0.83634  1.0000
  C   C138      1.0  0.12667  0.12683  0.56990  1.0000
  H   H236      1.0  0.26539  0.31771  0.53689  1.0000
  N   N9        1.0  0.48472  0.18452  0.80612  1.0000
  H   H237      1.0  0.48157  0.01672  0.75279  1.0000
  C   C139      1.0  0.26317  0.19779  0.53280  1.0000
  H   H238      1.0  0.01842  0.25933  0.52038  1.0000
  H   H239      1.0  0.23599  0.31913  0.90541  1.0000
  H   H240      1.0  0.08350  0.12268  0.53672  1.0000
  H   H241      1.0  0.01940  0.10060  0.58552  1.0000
  C   C140      1.0  0.03117  0.32031  0.95994  1.0000
  C   C141      1.0  0.25512  0.31700  0.48551  1.0000
  H   H242      1.0  0.45884  0.10890  0.75721  1.0000
  H   H243      1.0  0.06395  0.14230  0.48028  1.0000
  C   C142      1.0  0.33022  0.32925  0.94445  1.0000
  H   H244      1.0  0.39683  0.04414  0.93603  1.0000
  H   H245      1.0  0.21657  0.29262  0.89830  1.0000
  H   H246      1.0  0.40279  0.26529  0.95314  1.0000
  H   H247      1.0  0.28016  0.29482  0.80434  1.0000
  H   H248      1.0  0.19035  0.21559  0.74778  1.0000
  H   H249      1.0  0.27355  0.28345  0.58387  1.0000
  C   C143      1.0  0.29154  0.28008  0.57055  1.0000
  C   C144      1.0  0.31102  0.26455  0.51917  1.0000
  C   C145      1.0  0.30978  0.26785  0.59567  1.0000
  C   C146      1.0  0.49811  0.00888  0.76419  1.0000
  H   H250      1.0  0.15568  0.25364  0.91761  1.0000
  C   C147      1.0  0.27069  0.30710  0.51434  1.0000
  H   H251      1.0  0.33449  0.30926  0.94625  1.0000
  H   H252      1.0  0.22200  0.27381  0.76569  1.0000
  H   H253      1.0  0.12783  0.27278  0.91588  1.0000
  N   N10       1.0  0.28693  0.26596  0.53879  1.0000
  H   H254      1.0  0.48121  0.10757  0.79058  1.0000
  H   H255      1.0  0.05880  0.03415  0.62662  1.0000
  H   H256      1.0  0.30023  0.25262  0.60887  1.0000
  C   C148      1.0  0.04157  0.09848  0.53949  1.0000
  H   H257      1.0  0.00958  0.28975  0.97684  1.0000
  H   H258      1.0  0.19987  0.25271  0.80916  1.0000
  H   H259      1.0  0.36533  0.11745  0.94894  1.0000
  H   H260      1.0  0.03275  0.15533  0.96636  1.0000
  S   S42       1.0  0.47509  0.06787  0.90137  1.0000
  C   C149      1.0  0.31842  0.28626  0.62194  1.0000
  C   C150      1.0  0.00932  0.02660  0.51442  1.0000
  S   S43       1.0  0.01636  0.10355  0.87564  1.0000
  C   C151      1.0  0.38826  0.30014  0.93462  1.0000
  H   H261      1.0  0.41447  0.02442  0.88606  1.0000
  C   C152      1.0  0.20064  0.23332  0.74587  1.0000
  H   H262      1.0  0.02943  0.29222  0.92118  1.0000
  H   H263      1.0  0.03248  0.29979  0.49690  1.0000
  H   H264      1.0  0.38235  0.12509  0.91175  1.0000
  H   H265      1.0  0.02584  0.05831  0.57307  1.0000
  H   H266      1.0  0.03857  0.23066  0.92402  1.0000
  H   H267      1.0  0.08186  0.21718  0.48931  1.0000
  C   C153      1.0  0.22147  0.31116  0.88894  1.0000
  H   H268      1.0  0.45297  0.15393  0.76746  1.0000
  C   C154      1.0  0.48960  0.25355  0.91432  1.0000
  H   H269      1.0  0.42143  0.12952  0.94129  1.0000
  H   H270      1.0  0.01532  0.16218  0.85887  1.0000
  H   H271      1.0  0.08116  0.23014  0.94642  1.0000
  H   H272      1.0  0.24268  0.27707  0.96539  1.0000
  C   C155      1.0  0.39297  0.27243  0.93085  1.0000
  C   C156      1.0  0.08435  0.08348  0.49273  1.0000
  H   H273      1.0  0.05744  0.08694  0.60430  1.0000
  H   H274      1.0  0.17908  0.22992  0.85976  1.0000
  H   H275      1.0  0.37504  0.26242  0.92800  1.0000
  H   H276      1.0  0.49675  0.01664  0.48333  1.0000
  H   H277      1.0  0.38513  0.30607  0.88224  1.0000
  C   C157      1.0  0.38118  0.12820  0.93892  1.0000
  C   C158      1.0  0.43786  0.09032  0.97106  1.0000
  H   H278      1.0  0.03590  0.17764  0.91484  1.0000
  C   C159      1.0  0.25284  0.20204  0.79650  1.0000
  C   C160      1.0  0.41152  0.04471  0.88698  1.0000
  C   C161      1.0  0.23544  0.25800  0.76568  1.0000
  H   H279      1.0  0.47134  0.15094  0.82798  1.0000
  H   H280      1.0  0.28245  0.17595  0.80860  1.0000
  C   C162      1.0  0.23856  0.21214  0.76583  1.0000
  H   H281      1.0  0.32191  0.23851  0.93680  1.0000
  C   C163      1.0  0.03222  0.99928  0.74056  1.0000
  C   C164      1.0  0.25677  0.26402  0.79022  1.0000
  C   C165      1.0  0.26668  0.29005  0.78445  1.0000
  H   H282      1.0  0.33026  0.30071  0.61061  1.0000
  H   H283      1.0  0.30211  0.29517  0.63418  1.0000
  H   H284      1.0  0.42229  0.09068  0.90790  1.0000
  H   H285      1.0  0.37489  0.07775  0.96934  1.0000
  H   H286      1.0  0.48025  0.19427  0.85783  1.0000
  H   H287      1.0  0.24451  0.25803  0.74096  1.0000
  H   H288      1.0  0.17107  0.24292  0.69015  1.0000
  H   H289      1.0  0.08465  0.16928  0.52187  1.0000
  H   H290      1.0  0.21474  0.25482  0.70363  1.0000
  H   H291      1.0  0.44410  0.30033  0.89773  1.0000
  H   H292      1.0  0.25263  0.21631  0.74632  1.0000
  H   H293      1.0  0.23974  0.19284  0.81374  1.0000
  H   H294      1.0  0.28660  0.19138  0.76956  1.0000
  H   H295      1.0  0.04473  0.11129  0.51849  1.0000
  H   H296      1.0  0.25728  0.23025  0.50334  1.0000
  C   C166      1.0  0.02659  0.29800  0.52314  1.0000
  H   H297      1.0  0.13868  0.25684  0.87937  1.0000
  H   H298      1.0  0.25060  0.26302  0.81628  1.0000
  H   H299      1.0  0.27267  0.25114  0.78630  1.0000
  H   H300      1.0  0.05300  0.23296  0.48606  1.0000
  H   H301      1.0  0.25129  0.30389  0.78491  1.0000
  C   C167      1.0  0.16076  0.28889  0.89259  1.0000
  H   H302      1.0  0.16978  0.19838  0.85320  1.0000
  C   C168      1.0  0.27212  0.22262  0.51957  1.0000
  H   H303      1.0  0.17253  0.21852  0.79956  1.0000
  H   H304      1.0  0.07297  0.27368  0.49114  1.0000
  H   H305      1.0  0.24687  0.20027  0.54954  1.0000
  H   H306      1.0  0.40672  0.30915  0.93717  1.0000
  H   H307      1.0  0.39103  0.16703  0.93446  1.0000
  C   C169      1.0  0.42362  0.31280  0.81953  1.0000
  C   C170      1.0  0.11366  0.18606  0.96858  1.0000
  N   N11       1.0  0.06625  0.08853  0.55197  1.0000
  C   C171      1.0  0.07690  0.07137  0.52606  1.0000
  C   C172      1.0  0.06307  0.07435  0.58377  1.0000
  H   H308      1.0  0.32304  0.28080  0.52446  1.0000
  C   C173      1.0  0.08336  0.11004  0.55835  1.0000
  C   C174      1.0  0.11088  0.10351  0.56706  1.0000
  H   H309      1.0  0.29062  0.31094  0.50902  1.0000
  H   H310      1.0  0.32956  0.27648  0.64117  1.0000
  C   C175      1.0  0.04447  0.05250  0.58236  1.0000
  C   C176      1.0  0.02530  0.11279  0.56497  1.0000
  C   C177      1.0  0.18701  0.23012  0.68556  1.0000
  H   H311      1.0  0.45105  0.09685  0.95169  1.0000
  S   S44       1.0  0.02011  0.09979  0.95651  1.0000
  C   C178      1.0  0.06654  0.24163  0.95864  1.0000
  H   H312      1.0  0.09332  0.06100  0.53593  1.0000
  H   H313      1.0  0.17717  0.28171  0.87869  1.0000
  C   C179      1.0  0.44197  0.31016  0.87462  1.0000
  C   C180      1.0  0.37544  0.15561  0.94396  1.0000
  C   C181      1.0  0.02907  0.31262  0.92363  1.0000
  C   C182      1.0  0.20866  0.23572  0.70906  1.0000
  H   H314      1.0  0.03306  0.00057  0.71389  1.0000
  C   C183      1.0  0.46473  0.11771  0.78078  1.0000
  H   H315      1.0  0.11193  0.09376  0.59116  1.0000
  H   H316      1.0  0.09350  0.23707  0.54290  1.0000
  H   H317      1.0  0.07618  0.12145  0.57922  1.0000
  H   H318      1.0  0.44289  0.07062  0.97468  1.0000
  H   H319      1.0  0.49119  0.18777  0.75341  1.0000
  C   C184      1.0  0.04074  0.04110  0.61657  1.0000
  H   H320      1.0  0.05178  0.03772  0.56593  1.0000
  H   H321      1.0  0.29912  0.29868  0.56504  1.0000
  H   H322      1.0  0.06794  0.26076  0.94906  1.0000
  H   H323      1.0  0.43038  0.04734  0.93377  1.0000
  C   C185      1.0  0.14476  0.26673  0.90205  1.0000
  H   H324      1.0  0.04354  0.29488  0.53851  1.0000
  H   H325      1.0  0.09867  0.09795  0.49622  1.0000
  H   H326      1.0  0.12584  0.20158  0.96436  1.0000
  C   C186      1.0  0.08222  0.14554  0.97899  1.0000
  H   H327      1.0  0.40489  0.26864  0.90889  1.0000
  H   H328      1.0  0.29253  0.23079  0.56332  1.0000
  C   C187      1.0  0.27814  0.24052  0.54829  1.0000
  C   C188      1.0  0.27255  0.18295  0.78629  1.0000
  H   H329      1.0  0.37246  0.15977  0.97060  1.0000
  H   H330      1.0  0.25069  0.29723  0.85689  1.0000
  C   C189      1.0  0.20975  0.23477  0.80514  1.0000
  C   C190      1.0  0.45868  0.19529  0.80237  1.0000
  C   C191      1.0  0.49537  0.19317  0.83888  1.0000
  H   H331      1.0  0.02770  0.02529  0.61463  1.0000
  C   C192      1.0  0.45543  0.22304  0.81148  1.0000
  H   H332      1.0  0.25747  0.18582  0.51180  1.0000
  C   C193      1.0  0.42987  0.23273  0.80052  1.0000
  H   H333      1.0  0.26236  0.21673  0.81055  1.0000
  C   C194      1.0  0.11745  0.17567  0.49227  1.0000
  H   H334      1.0  0.32236  0.24837  0.52740  1.0000
  H   H335      1.0  0.35820  0.16069  0.93011  1.0000
  H   H336      1.0  0.44516  0.18491  0.81779  1.0000
  H   H337      1.0  0.45192  0.19324  0.77644  1.0000
  H   H338      1.0  0.48405  0.14597  0.75378  1.0000
  H   H339      1.0  0.01518  0.20202  0.90563  1.0000
  C   C195      1.0  0.03190  0.01868  0.50052  1.0000
  H   H340      1.0  0.42644  0.05353  0.87211  1.0000
  C   C196      1.0  0.18503  0.21187  0.84921  1.0000
  C   C197      1.0  0.23318  0.30821  0.85473  1.0000
  H   H341      1.0  0.24836  0.27773  0.53458  1.0000
  C   C198      1.0  0.19813  0.32824  0.88790  1.0000
  H   H342      1.0  0.45665  0.22575  0.83869  1.0000
  H   H343      1.0  0.22790  0.19618  0.75583  1.0000
  H   H344      1.0  0.18737  0.32320  0.86548  1.0000
  H   H345      1.0  0.42795  0.23171  0.77316  1.0000
  H   H346      1.0  0.18069  0.21078  0.68858  1.0000
  H   H347      1.0  0.14963  0.30053  0.87561  1.0000
  C   C199      1.0  0.16941  0.30325  0.92380  1.0000
  H   H348      1.0  0.22410  0.23401  0.82493  1.0000
  Fe  Fe24      1.0  0.19840  0.25727  0.48567  1.0000
  H   H349      1.0  0.47305  0.25808  0.92984  1.0000
  H   H350      1.0  0.28913  0.21870  0.50478  1.0000
  H   H351      1.0  0.44919  0.11602  0.79884  1.0000
  H   H352      1.0  0.11887  0.13956  0.58890  1.0000
  C   C200      1.0  0.04055  0.23130  0.95127  1.0000
  H   H353      1.0  0.08126  0.06625  0.59174  1.0000
  H   H354      1.0  0.22419  0.22281  0.70316  1.0000
  C   C201      1.0  0.40622  0.12070  0.95571  1.0000
  N   N12       1.0  0.22152  0.23420  0.77115  1.0000
  H   H355      1.0  0.14609  0.12184  0.57712  1.0000
  H   H356      1.0  0.46983  0.23467  0.79968  1.0000
  H   H357      1.0  0.35656  0.29939  0.90098  1.0000
  C   C202      1.0  0.48247  0.15676  0.80612  1.0000
  C   C203      1.0  0.19050  0.21414  0.81218  1.0000
  H   H358      1.0  0.27643  0.29104  0.76023  1.0000
  C   C204      1.0  0.41234  0.05350  0.92300  1.0000
  H   H359      1.0  0.27840  0.18835  0.54668  1.0000
  C   C205      1.0  0.08167  0.25296  0.53510  1.0000
  C   C206      1.0  0.03720  0.20575  0.96770  1.0000
  H   H360      1.0  0.36686  0.32008  0.83687  1.0000
  C   C207      1.0  0.47074  0.14489  0.77481  1.0000
  S   S45       1.0  0.20862  0.23977  0.94021  1.0000
  H   H361      1.0  0.08853  0.26970  0.54806  1.0000
  H   H362      1.0  0.23791  0.32648  0.84413  1.0000
  H   H363      1.0  0.06205  0.24969  0.54271  1.0000
  H   H364      1.0  0.18659  0.24817  0.75087  1.0000
  H   H365      1.0  0.02931  0.03872  0.74799  1.0000
  H   H366      1.0  0.19720  0.19598  0.80292  1.0000
  C   C208      1.0  0.49994  0.19354  0.77719  1.0000
  H   H367      1.0  0.39308  0.04907  0.87566  1.0000
  H   H368      1.0  0.20184  0.20519  0.86271  1.0000
  H   H369      1.0  0.02999  0.08343  0.52896  1.0000
  H   H370      1.0  0.03561  0.12862  0.57557  1.0000
  H   H371      1.0  0.26368  0.16712  0.77344  1.0000
  H   H372      1.0  0.06305  0.05694  0.51971  1.0000
  H   H373      1.0  0.44396  0.01331  0.79358  1.0000
  H   H374      1.0  0.23491  0.31378  0.48980  1.0000
  C   C209      1.0  0.10613  0.32288  0.48897  1.0000
  H   H375      1.0  0.04508  0.32028  0.90956  1.0000
  C   C210      1.0  0.40886  0.08184  0.92526  1.0000
  H   H376      1.0  0.10347  0.25970  0.49203  1.0000
  H   H377      1.0  0.34551  0.23101  0.96707  1.0000
  H   H378      1.0  0.50091  0.14761  0.80936  1.0000
  S   S46       1.0  0.49021  0.04304  0.81325  1.0000
  H   H379      1.0  0.26206  0.27018  0.49644  1.0000
  H   H380      1.0  0.02665  0.24448  0.96161  1.0000
  H   H381      1.0  0.01151  0.32006  0.91263  1.0000
  H   H382      1.0  0.01075  0.20495  0.53346  1.0000
  N   N13       1.0  0.41122  0.09333  0.95923  1.0000
  C   C211      1.0  0.08352  0.25667  0.49767  1.0000
  H   H383      1.0  0.09824  0.31876  0.93638  1.0000
  H   H384      1.0  0.22020  0.29841  0.83781  1.0000
  H   H385      1.0  0.49990  0.21401  0.77634  1.0000
  H   H386      1.0  0.01775  0.31562  0.53122  1.0000
  H   H387      1.0  0.50377  0.31351  0.85162  1.0000
  H   H388      1.0  0.05467  0.19480  0.96359  1.0000
  C   C212      1.0  0.50198  0.27741  0.90295  1.0000
  C   C213      1.0  0.37373  0.31047  0.90434  1.0000
  H   H389      1.0  0.37766  0.30296  0.95790  1.0000
  H   H390      1.0  0.04930  0.31322  0.96943  1.0000
  H   H391      1.0  0.31577  0.33188  0.92502  1.0000
  C   C214      1.0  0.43596  0.00011  0.81164  1.0000
  H   H392      1.0  0.44464  0.00376  0.83616  1.0000
  C   C215      1.0  0.10162  0.32815  0.95960  1.0000
  N   N14       1.0  0.18189  0.32785  0.91843  1.0000
  C   C216      1.0  0.00842  0.27655  0.52738  1.0000
  H   H393      1.0  0.00625  0.13645  0.52907  1.0000
  H   H394      1.0  0.33317  0.26220  0.96413  1.0000
  Fe  Fe25      1.0  0.50313  0.06078  0.86112  1.0000
  C   C217      1.0  0.30870  0.26341  0.48074  1.0000
  H   H395      1.0  0.06781  0.09193  0.48053  1.0000
  H   H396      1.0  0.50363  0.31867  0.77744  1.0000
  H   H397      1.0  0.33409  0.33173  0.87626  1.0000
  S   S47       1.0  0.15683  0.25278  0.47969  1.0000
  H   H398      1.0  0.03970  0.02856  0.47981  1.0000
  S   S48       1.0  0.48416  0.46987  0.32536  1.0000
  H   H399      1.0  0.45901  0.52852  0.31089  1.0000
  S   S49       1.0  0.04999  0.43211  0.39892  1.0000
  C   C218      1.0  0.04355  0.50107  0.39954  1.0000
  C   C219      1.0  0.10195  0.66263  0.11720  1.0000
  C   C220      1.0  0.21873  0.66265  0.07086  1.0000
  Fe  Fe26      1.0  0.03782  0.39272  0.40641  1.0000
  S   S50       1.0  0.06337  0.35883  0.40193  1.0000
  C   C221      1.0  0.14334  0.64166  0.19626  1.0000
  Fe  Fe27      1.0  0.05713  0.61766  0.14466  1.0000
  S   S51       1.0  0.02903  0.60997  0.18506  1.0000
  H   H400      1.0  0.01304  0.39263  0.04156  1.0000
  Fe  Fe28      1.0  0.03721  0.57587  0.10141  1.0000
  H   H401      1.0  0.10435  0.51601  0.09466  1.0000
  Fe  Fe29      1.0  0.03741  0.56942  0.17732  1.0000
  H   H402      1.0  0.41471  0.52499  0.35895  1.0000
  S   S52       1.0  0.02878  0.61645  0.10393  1.0000
  S   S53       1.0  0.06777  0.57763  0.13976  1.0000
  C   C222      1.0  0.42881  0.55711  0.30828  1.0000
  H   H403      1.0  0.44584  0.37416  0.24707  1.0000
  S   S54       1.0  0.45605  0.61290  0.17242  1.0000
  S   S55       1.0  0.47880  0.44039  0.41374  1.0000
  Fe  Fe30      1.0  0.48818  0.40032  0.40501  1.0000
  S   S56       1.0  0.46265  0.36791  0.41724  1.0000
  H   H404      1.0  0.13751  0.62237  0.19132  1.0000
  C   C223      1.0  0.44246  0.35335  0.38831  1.0000
  C   C224      1.0  0.43589  0.36466  0.35846  1.0000
  C   C225      1.0  0.02992  0.45649  0.13308  1.0000
  H   H405      1.0  0.44289  0.38286  0.35284  1.0000
  N   N15       1.0  0.43470  0.56796  0.27450  1.0000
  H   H406      1.0  0.07640  0.48851  0.37224  1.0000
  H   H407      1.0  0.07543  0.47892  0.41499  1.0000
  C   C226      1.0  0.42014  0.35248  0.33582  1.0000
  C   C227      1.0  0.44503  0.63512  0.20131  1.0000
  C   C228      1.0  0.45965  0.64311  0.22792  1.0000
  H   H408      1.0  0.47782  0.38262  0.25447  1.0000
  C   C229      1.0  0.42059  0.64451  0.19787  1.0000
  H   H409      1.0  0.05963  0.49091  0.19378  1.0000
  H   H410      1.0  0.40912  0.63842  0.17737  1.0000
  H   H411      1.0  0.47762  0.35311  0.32395  1.0000
  H   H412      1.0  0.08475  0.50788  0.14854  1.0000
  S   S57       1.0  0.04838  0.54198  0.21911  1.0000
  C   C230      1.0  0.11061  0.64753  0.09147  1.0000
  H   H413      1.0  0.17947  0.63718  0.17399  1.0000
  C   C231      1.0  0.12768  0.65682  0.06804  1.0000
  H   H414      1.0  0.10467  0.62852  0.09011  1.0000
  C   C232      1.0  0.46755  0.34656  0.27348  1.0000
  C   C233      1.0  0.04381  0.49048  0.29324  1.0000
  C   C234      1.0  0.05246  0.50824  0.27032  1.0000
  C   C235      1.0  0.03593  0.52057  0.24862  1.0000
  H   H415      1.0  0.41930  0.61960  0.28695  1.0000
  H   H416      1.0  0.08311  0.51022  0.40516  1.0000
  H   H417      1.0  0.05688  0.48114  0.30947  1.0000
  H   H418      1.0  0.07222  0.51232  0.26924  1.0000
  H   H419      1.0  0.41513  0.36147  0.31283  1.0000
  C   C236      1.0  0.43832  0.54765  0.24928  1.0000
  H   H420      1.0  0.48723  0.65943  0.16110  1.0000
  C   C237      1.0  0.43487  0.52404  0.35246  1.0000
  C   C238      1.0  0.03171  0.53137  0.03791  1.0000
  C   C239      1.0  0.04182  0.51919  0.01023  1.0000
  C   C240      1.0  0.03236  0.49627  0.99993  1.0000
  H   H421      1.0  0.49076  0.46723  0.05413  1.0000
  C   C241      1.0  0.01074  0.55846  0.36154  1.0000
  C   C242      1.0  0.07947  0.34522  0.43595  1.0000
  H   H422      1.0  0.33201  0.33385  0.99807  1.0000
  C   C243      1.0  0.11105  0.35228  0.01925  1.0000
  H   H423      1.0  0.37610  0.63296  0.29268  1.0000
  H   H424      1.0  0.11505  0.36189  0.04212  1.0000
  H   H425      1.0  0.07654  0.50652  0.07296  1.0000
  H   H426      1.0  0.03258  0.61554  0.02692  1.0000
  H   H427      1.0  0.45436  0.53559  0.25612  1.0000
  C   C244      1.0  0.03761  0.52419  0.37820  1.0000
  C   C245      1.0  0.00590  0.34451  0.01891  1.0000
  Fe  Fe31      1.0  0.02603  0.43994  0.44365  1.0000
  C   C246      1.0  0.38021  0.61668  0.27677  1.0000
  H   H428      1.0  0.01749  0.50541  0.18407  1.0000
  H   H429      1.0  0.07252  0.46600  0.17125  1.0000
  H   H430      1.0  0.46329  0.52223  0.19858  1.0000
  H   H431      1.0  0.05729  0.52734  0.99708  1.0000
  H   H432      1.0  0.17187  0.35116  0.98276  1.0000
  H   H433      1.0  0.46026  0.56718  0.21161  1.0000
  N   N16       1.0  0.03661  0.47916  0.15283  1.0000
  C   C247      1.0  0.40497  0.60488  0.28743  1.0000
  H   H434      1.0  0.42294  0.50467  0.45699  1.0000
  H   H435      1.0  0.07608  0.53395  0.09838  1.0000
  H   H436      1.0  0.15492  0.64610  0.14590  1.0000
  C   C248      1.0  0.04251  0.41908  0.09927  1.0000
  H   H437      1.0  0.42720  0.56634  0.20276  1.0000
  S   S58       1.0  0.00457  0.39780  0.37246  1.0000
  C   C249      1.0  0.01194  0.52067  0.05506  1.0000
  C   C250      1.0  0.46133  0.37342  0.26539  1.0000
  C   C251      1.0  0.04726  0.49889  0.13041  1.0000
  H   H438      1.0  0.05237  0.53822  0.38282  1.0000
  H   H439      1.0  0.20085  0.65869  0.05794  1.0000
  H   H440      1.0  0.05909  0.43590  0.25101  1.0000
  H   H441      1.0  0.08452  0.48099  0.12278  1.0000
  H   H442      1.0  0.13476  0.64481  0.04875  1.0000
  C   C252      1.0  0.05191  0.44190  0.11757  1.0000
  H   H443      1.0  0.40284  0.59857  0.31336  1.0000
  C   C253      1.0  0.08366  0.51495  0.09619  1.0000
  H   H444      1.0  0.48840  0.56172  0.26009  1.0000
  H   H445      1.0  0.42153  0.53557  0.24897  1.0000
  H   H446      1.0  0.03859  0.50370  0.42591  1.0000
  H   H447      1.0  0.47447  0.33776  0.25042  1.0000
  C   C254      1.0  0.07615  0.49950  0.12613  1.0000
  S   S59       1.0  0.04366  0.56025  0.04979  1.0000
  H   H448      1.0  0.08924  0.38242  0.99867  1.0000
  H   H449      1.0  0.47851  0.49149  0.26110  1.0000
  H   H450      1.0  0.03866  0.49773  0.10536  1.0000
  C   C255      1.0  0.09633  0.36392  0.99472  1.0000
  H   H451      1.0  0.45873  0.59569  0.25335  1.0000
  H   H452      1.0  0.03265  0.40651  0.11650  1.0000
  H   H453      1.0  0.03219  0.54672  0.31728  1.0000
  H   H454      1.0  0.06259  0.36810  0.47342  1.0000
  S   S60       1.0  0.01611  0.40018  0.45289  1.0000
  H   H455      1.0  0.45002  0.53956  0.16475  1.0000
  H   H456      1.0  0.44556  0.53668  0.36879  1.0000
  H   H457      1.0  0.38122  0.62303  0.25068  1.0000
  H   H458      1.0  0.43845  0.47804  0.43963  1.0000
  H   H459      1.0  0.02553  0.57169  0.36926  1.0000
  H   H460      1.0  0.05857  0.40894  0.08818  1.0000
  C   C256      1.0  0.48263  0.57216  0.28246  1.0000
  H   H461      1.0  0.44168  0.50491  0.35693  1.0000
  C   C257      1.0  0.01840  0.48454  0.29467  1.0000
  C   C258      1.0  0.16298  0.64939  0.17091  1.0000
  H   H462      1.0  0.45369  0.44480  0.47758  1.0000
  H   H463      1.0  0.08182  0.54199  0.45070  1.0000
  H   H464      1.0  0.47851  0.63613  0.23079  1.0000
  H   H465      1.0  0.44979  0.33752  0.28050  1.0000
  H   H466      1.0  0.04228  0.51769  0.13970  1.0000
  C   C259      1.0  0.44684  0.53332  0.19058  1.0000
  H   H467      1.0  0.45445  0.59848  0.29663  1.0000
  H   H468      1.0  0.43524  0.56968  0.32839  1.0000
  C   C260      1.0  0.50273  0.59129  0.28983  1.0000
  C   C261      1.0  0.44951  0.65956  0.25148  1.0000
  S   S61       1.0  0.08257  0.65114  0.14929  1.0000
  C   C262      1.0  0.05460  0.47347  0.18073  1.0000
  H   H469      1.0  0.45532  0.38360  0.28796  1.0000
  C   C263      1.0  0.01065  0.57847  0.30457  1.0000
  C   C264      1.0  0.04534  0.45521  0.20756  1.0000
  H   H470      1.0  0.49905  0.60040  0.31401  1.0000
  Fe  Fe32      1.0  0.50073  0.44677  0.36681  1.0000
  H   H471      1.0  0.07558  0.46393  0.24191  1.0000
  H   H472      1.0  0.48215  0.55970  0.30401  1.0000
  H   H473      1.0  0.36467  0.60333  0.27927  1.0000
  Fe  Fe33      1.0  0.01472  0.43820  0.36916  1.0000
  H   H474      1.0  0.27016  0.33527  0.32808  1.0000
  C   C265      1.0  0.07576  0.53396  0.47463  1.0000
  H   H475      1.0  0.01860  0.44361  0.14824  1.0000
  C   C266      1.0  0.45705  0.58470  0.27646  1.0000
  H   H476      1.0  0.41629  0.59265  0.23959  1.0000
  H   H477      1.0  0.22651  0.64515  0.08092  1.0000
  C   C267      1.0  0.41256  0.58349  0.26370  1.0000
  C   C268      1.0  0.07556  0.35316  0.46853  1.0000
  C   C269      1.0  0.06662  0.44748  0.23070  1.0000
  H   H478      1.0  0.15103  0.64274  0.22176  1.0000
  H   H479      1.0  0.02509  0.59189  0.31244  1.0000
  H   H480      1.0  0.02804  0.54629  0.43058  1.0000
  S   S62       1.0  0.00611  0.46212  0.32283  1.0000
  C   C270      1.0  0.44319  0.55576  0.21309  1.0000
  H   H481      1.0  0.42875  0.51684  0.30093  1.0000
  H   H482      1.0  0.23012  0.64988  0.15824  1.0000
  H   H483      1.0  0.42995  0.52150  0.19081  1.0000
  C   C271      1.0  0.07133  0.49437  0.39776  1.0000
  H   H484      1.0  0.40820  0.55564  0.31185  1.0000
  C   C272      1.0  0.43885  0.53070  0.31611  1.0000
  H   H485      1.0  0.06154  0.45339  0.09891  1.0000
  C   C273      1.0  0.01043  0.51498  0.25054  1.0000
  H   H486      1.0  0.02315  0.35374  0.01007  1.0000
  H   H487      1.0  0.08094  0.43660  0.21702  1.0000
  H   H488      1.0  0.03291  0.48501  0.39014  1.0000
  H   H489      1.0  0.39594  0.57152  0.25967  1.0000
  H   H490      1.0  0.06542  0.43560  0.13664  1.0000
  H   H491      1.0  0.12650  0.65369  0.19447  1.0000
  H   H492      1.0  0.21427  0.64952  0.19783  1.0000
  H   H493      1.0  0.03073  0.46402  0.22320  1.0000
  H   H494      1.0  0.04019  0.51793  0.35223  1.0000
  H   H495      1.0  0.19709  0.65282  0.12705  1.0000
  H   H496      1.0  0.25985  0.64357  0.20359  1.0000
  H   H497      1.0  0.02962  0.42464  0.07896  1.0000
  H   H498      1.0  0.03760  0.43821  0.19637  1.0000
  H   H499      1.0  0.01676  0.35222  0.07063  1.0000
  H   H500      1.0  0.02803  0.64832  0.03086  1.0000
  H   H501      1.0  0.01761  0.46162  0.11190  1.0000
  N   N17       1.0  0.01206  0.53568  0.38307  1.0000
  C   C274      1.0  0.01261  0.48552  0.01723  1.0000
  C   C275      1.0  0.48696  0.34475  0.30212  1.0000
  H   H502      1.0  0.05888  0.52262  0.47041  1.0000
  C   C276      1.0  0.43767  0.49053  0.46145  1.0000
  H   H503      1.0  0.21369  0.35773  0.00619  1.0000
  C   C277      1.0  0.20407  0.33984  0.00975  1.0000
  C   C278      1.0  0.02112  0.63145  0.01826  1.0000
  H   H504      1.0  0.45590  0.50005  0.46408  1.0000
  C   C279      1.0  0.41071  0.66149  0.22096  1.0000
  C   C280      1.0  0.01350  0.55428  0.32363  1.0000
  S   S63       1.0  0.00760  0.56516  0.13802  1.0000
  C   C281      1.0  0.49538  0.49885  0.27199  1.0000
  H   H505      1.0  0.02363  0.63373  0.99116  1.0000
  C   C282      1.0  0.01291  0.48926  0.16822  1.0000
  H   H506      1.0  0.48323  0.65248  0.11794  1.0000
  H   H507      1.0  0.19414  0.34036  0.03391  1.0000
  Fe  Fe34      1.0  0.49582  0.59728  0.16873  1.0000
  H   H508      1.0  0.01308  0.57486  0.27764  1.0000
  H   H509      1.0  0.50247  0.50401  0.08763  1.0000
  H   H510      1.0  0.49617  0.42655  0.26998  1.0000
  C   C283      1.0  0.00940  0.54238  0.41941  1.0000
  H   H511      1.0  0.50093  0.35188  0.36707  1.0000
  H   H512      1.0  0.50321  0.60552  0.27017  1.0000
  C   C284      1.0  0.25206  0.66228  0.19898  1.0000
  C   C285      1.0  0.22679  0.66024  0.18151  1.0000
  H   H513      1.0  0.46051  0.66500  0.27263  1.0000
  C   C286      1.0  0.50287  0.49104  0.30363  1.0000
  C   C287      1.0  0.18520  0.33543  0.98196  1.0000
  H   H514      1.0  0.50414  0.52150  0.22958  1.0000
  C   C288      1.0  0.50411  0.48020  0.04433  1.0000
  H   H515      1.0  0.50288  0.35716  0.29612  1.0000
  H   H516      1.0  0.43603  0.64221  0.78082  1.0000
  C   C289      1.0  0.13247  0.37385  0.88189  1.0000
  S   S64       1.0  0.04603  0.43825  0.92771  1.0000
  H   H517      1.0  0.15047  0.34872  0.93831  1.0000
  C   C290      1.0  0.50275  0.47956  0.76820  1.0000
  C   C291      1.0  0.09208  0.35210  0.96443  1.0000
  Fe  Fe35      1.0  0.04665  0.39654  0.93053  1.0000
  S   S65       1.0  0.07750  0.36724  0.93062  1.0000
  H   H518      1.0  0.10953  0.55852  0.50828  1.0000
  Fe  Fe36      1.0  0.04139  0.59564  0.64623  1.0000
  C   C292      1.0  0.47863  0.40637  0.50963  1.0000
  S   S66       1.0  0.08116  0.61053  0.64244  1.0000
  C   C293      1.0  0.46198  0.47584  0.56926  1.0000
  C   C294      1.0  0.02641  0.50603  0.75992  1.0000
  H   H519      1.0  0.03232  0.52295  0.84513  1.0000
  H   H520      1.0  0.09932  0.47163  0.87147  1.0000
  H   H521      1.0  0.42582  0.38822  0.92112  1.0000
  S   S67       1.0  0.03279  0.55464  0.64880  1.0000
  H   H522      1.0  0.50041  0.48292  0.87853  1.0000
  C   C295      1.0  0.08873  0.34197  0.49485  1.0000
  S   S68       1.0  0.46343  0.61083  0.73607  1.0000
  S   S69       1.0  0.48047  0.42052  0.90533  1.0000
  H   H523      1.0  0.05415  0.56559  0.48909  1.0000
  H   H524      1.0  0.05287  0.54488  0.79920  1.0000
  H   H525      1.0  0.06734  0.50185  0.85426  1.0000
  C   C296      1.0  0.50235  0.39224  0.51927  1.0000
  C   C297      1.0  0.45061  0.34568  0.84060  1.0000
  H   H526      1.0  0.44687  0.63611  0.67587  1.0000
  H   H527      1.0  0.45941  0.36341  0.83715  1.0000
  H   H528      1.0  0.43752  0.39144  0.55325  1.0000
  C   C298      1.0  0.03588  0.39352  0.53838  1.0000
  H   H529      1.0  0.46130  0.51994  0.84714  1.0000
  H   H530      1.0  0.09641  0.48120  0.91404  1.0000
  C   C299      1.0  0.44372  0.63682  0.72890  1.0000
  C   C300      1.0  0.45336  0.49158  0.59858  1.0000
  H   H531      1.0  0.37888  0.38851  0.92072  1.0000
  C   C301      1.0  0.46737  0.59489  0.83523  1.0000
  C   C302      1.0  0.02738  0.48626  0.50677  1.0000
  C   C303      1.0  0.31867  0.33716  0.97742  1.0000
  C   C304      1.0  0.43159  0.47605  0.49284  1.0000
  C   C305      1.0  0.14457  0.34845  0.88652  1.0000
  H   H532      1.0  0.48795  0.43823  0.53858  1.0000
  H   H533      1.0  0.35370  0.34469  0.78946  1.0000
  N   N18       1.0  0.36759  0.33765  0.90519  1.0000
  H   H534      1.0  0.17036  0.62407  0.51482  1.0000
  H   H535      1.0  0.14631  0.38716  0.87213  1.0000
  C   C306      1.0  0.14992  0.62778  0.51547  1.0000
  H   H536      1.0  0.40290  0.34884  0.92664  1.0000
  Fe  Fe37      1.0  0.49290  0.59454  0.70112  1.0000
  S   S70       1.0  0.02259  0.39292  0.88520  1.0000
  S   S71       1.0  0.49583  0.55400  0.68774  1.0000
  C   C307      1.0  0.42105  0.40367  0.54964  1.0000
  H   H537      1.0  0.05759  0.60792  0.49169  1.0000
  H   H538      1.0  0.46363  0.39262  0.50599  1.0000
  C   C308      1.0  0.42164  0.66510  0.69218  1.0000
  H   H539      1.0  0.44882  0.56124  0.85039  1.0000
  C   C309      1.0  0.09276  0.57075  0.50651  1.0000
  C   C310      1.0  0.02671  0.51501  0.55343  1.0000
  S   S72       1.0  0.47088  0.34566  0.90414  1.0000
  C   C311      1.0  0.13618  0.60490  0.52775  1.0000
  C   C312      1.0  0.39924  0.38734  0.53907  1.0000
  H   H540      1.0  0.02254  0.62870  0.54545  1.0000
  H   H541      1.0  0.10488  0.62368  0.55026  1.0000
  H   H542      1.0  0.14648  0.64368  0.53231  1.0000
  H   H543      1.0  0.20488  0.34733  0.88320  1.0000
  H   H544      1.0  0.49265  0.54404  0.51757  1.0000
  H   H545      1.0  0.36679  0.34354  0.95826  1.0000
  C   C313      1.0  0.05425  0.61484  0.51716  1.0000
  H   H546      1.0  0.12507  0.38104  0.90572  1.0000
  H   H547      1.0  0.32706  0.33859  0.81541  1.0000
  C   C314      1.0  0.09080  0.63624  0.61829  1.0000
  H   H548      1.0  0.05788  0.49127  0.54102  1.0000
  C   C315      1.0  0.01791  0.48006  0.80872  1.0000
  N   N19       1.0  0.09139  0.58752  0.53642  1.0000
  H   H549      1.0  0.03182  0.59973  0.94239  1.0000
  H   H550      1.0  0.46302  0.59536  0.80843  1.0000
  H   H551      1.0  0.03836  0.51059  0.73926  1.0000
  H   H552      1.0  0.09068  0.52159  0.48439  1.0000
  H   H553      1.0  0.34159  0.36871  0.81603  1.0000
  C   C316      1.0  0.45215  0.45646  0.50014  1.0000
  H   H554      1.0  0.38191  0.39852  0.53596  1.0000
  H   H555      1.0  0.38048  0.35032  0.83849  1.0000
  H   H556      1.0  0.14367  0.63283  0.49012  1.0000
  H   H557      1.0  0.00719  0.43415  0.52288  1.0000
  H   H558      1.0  0.49542  0.49381  0.92014  1.0000
  H   H559      1.0  0.06466  0.60644  0.56768  1.0000
  C   C317      1.0  0.35395  0.34455  0.93657  1.0000
  S   S73       1.0  0.02778  0.45544  0.83561  1.0000
  C   C318      1.0  0.01697  0.40721  0.56018  1.0000
  H   H560      1.0  0.34366  0.36283  0.87780  1.0000
  H   H561      1.0  0.05185  0.58146  0.54640  1.0000
  C   C319      1.0  0.09476  0.48747  0.88795  1.0000
  C   C320      1.0  0.10150  0.57465  0.56682  1.0000
  C   C321      1.0  0.10764  0.60979  0.53027  1.0000
  H   H562      1.0  0.48026  0.56550  0.78105  1.0000
  H   H563      1.0  0.48549  0.60412  0.83978  1.0000
  C   C322      1.0  0.08638  0.55256  0.58020  1.0000
  C   C323      1.0  0.09729  0.54321  0.61289  1.0000
  H   H564      1.0  0.20915  0.35056  0.94380  1.0000
  H   H565      1.0  0.12060  0.56721  0.56215  1.0000
  H   H566      1.0  0.10362  0.58821  0.58734  1.0000
  C   C324      1.0  0.43574  0.33551  0.81519  1.0000
  H   H567      1.0  0.06243  0.54542  0.52205  1.0000
  H   H568      1.0  0.04547  0.40659  0.52150  1.0000
  H   H569      1.0  0.14399  0.60036  0.55252  1.0000
  H   H570      1.0  0.06662  0.55762  0.58496  1.0000
  H   H571      1.0  0.08738  0.53692  0.56252  1.0000
  H   H572      1.0  0.11707  0.53734  0.60967  1.0000
  H   H573      1.0  0.09629  0.55783  0.63217  1.0000
  H   H574      1.0  0.08635  0.52716  0.62167  1.0000
  H   H575      1.0  0.40375  0.34488  0.88338  1.0000
  H   H576      1.0  0.01754  0.49504  0.88405  1.0000
  H   H577      1.0  0.08572  0.34843  0.51990  1.0000
  H   H578      1.0  0.40860  0.43495  0.52146  1.0000
  N   N20       1.0  0.03526  0.52954  0.89783  1.0000
  C   C325      1.0  0.06071  0.51814  0.90377  1.0000
  C   C326      1.0  0.03032  0.54995  0.92273  1.0000
  H   H579      1.0  0.44750  0.62941  0.84307  1.0000
  C   C327      1.0  0.03229  0.53872  0.86277  1.0000
  C   C328      1.0  0.05157  0.55772  0.85046  1.0000
  H   H580      1.0  0.34774  0.36415  0.93551  1.0000
  H   H581      1.0  0.47035  0.46613  0.50176  1.0000
  C   C329      1.0  0.05293  0.56564  0.93424  1.0000
  H   H582      1.0  0.50027  0.50815  0.48028  1.0000
  C   C330      1.0  0.39172  0.35188  0.90375  1.0000
  H   H583      1.0  0.40362  0.37778  0.51538  1.0000
  C   C331      1.0  0.47745  0.54793  0.79454  1.0000
  H   H584      1.0  0.06193  0.51133  0.92978  1.0000
  H   H585      1.0  0.07574  0.53200  0.90145  1.0000
  H   H586      1.0  0.01565  0.56279  0.91320  1.0000
  H   H587      1.0  0.02269  0.54207  0.94613  1.0000
  C   C332      1.0  0.47161  0.42574  0.53649  1.0000
  C   C333      1.0  0.44240  0.45585  0.56047  1.0000
  H   H588      1.0  0.05430  0.64539  0.59927  1.0000
  H   H589      1.0  0.47070  0.41627  0.56088  1.0000
  H   H590      1.0  0.07106  0.55150  0.85479  1.0000
  H   H591      1.0  0.04834  0.57570  0.86293  1.0000
  H   H592      1.0  0.41316  0.46725  0.48904  1.0000
  H   H593      1.0  0.49008  0.53448  0.78204  1.0000
  H   H594      1.0  0.49072  0.51066  0.83090  1.0000
  H   H595      1.0  0.09568  0.58162  0.48346  1.0000
  H   H596      1.0  0.06600  0.55418  0.94921  1.0000
  H   H597      1.0  0.06352  0.57332  0.91320  1.0000
  H   H598      1.0  0.06092  0.59761  0.96482  1.0000
  S   S74       1.0  0.49441  0.44745  0.81883  1.0000
  N   N21       1.0  0.48474  0.55013  0.83059  1.0000
  C   C334      1.0  0.16290  0.34857  0.91627  1.0000
  H   H599      1.0  0.37932  0.38505  0.87633  1.0000
  C   C335      1.0  0.38919  0.38023  0.89961  1.0000
  C   C336      1.0  0.35097  0.34361  0.87602  1.0000
  H   H600      1.0  0.45077  0.61085  0.87984  1.0000
  S   S75       1.0  0.04349  0.46338  0.48407  1.0000
  H   H601      1.0  0.44100  0.44388  0.58271  1.0000
  C   C337      1.0  0.02617  0.61885  0.52179  1.0000
  C   C338      1.0  0.06817  0.49644  0.88072  1.0000
  C   C339      1.0  0.03915  0.49704  0.53428  1.0000
  H   H602      1.0  0.05028  0.38447  0.55413  1.0000
  N   N22       1.0  0.44807  0.44049  0.53017  1.0000
  H   H603      1.0  0.48590  0.47200  0.75748  1.0000
  H   H604      1.0  0.43573  0.50153  0.59248  1.0000
  H   H605      1.0  0.02936  0.56826  0.80710  1.0000
  H   H606      1.0  0.46787  0.50551  0.60447  1.0000
  S   S76       1.0  0.01201  0.60418  0.60825  1.0000
  H   H607      1.0  0.06192  0.57652  0.80501  1.0000
  H   H608      1.0  0.49977  0.38257  0.54323  1.0000
  H   H609      1.0  0.17273  0.36666  0.91652  1.0000
  C   C340      1.0  0.48138  0.52505  0.84629  1.0000
  H   H610      1.0  0.12947  0.63226  0.63256  1.0000
  H   H611      1.0  0.03144  0.34073  0.96041  1.0000
  C   C341      1.0  0.04868  0.56207  0.81322  1.0000
  C   C342      1.0  0.06964  0.55432  0.49952  1.0000
  C   C343      1.0  0.50212  0.52783  0.52706  1.0000
  H   H612      1.0  0.41276  0.41265  0.89621  1.0000
  H   H613      1.0  0.10845  0.50238  0.88327  1.0000
  H   H614      1.0  0.42563  0.38563  0.87650  1.0000
  H   H615      1.0  0.15357  0.34370  0.86272  1.0000
  C   C344      1.0  0.19848  0.33323  0.94792  1.0000
  H   H616      1.0  0.05023  0.47629  0.77720  1.0000
  H   H617      1.0  0.48003  0.46711  0.57631  1.0000
  H   H618      1.0  0.31344  0.35703  0.97685  1.0000
  C   C345      1.0  0.06521  0.59681  0.54336  1.0000
  H   H619      1.0  0.11670  0.37256  0.86405  1.0000
  H   H620      1.0  0.14029  0.58946  0.51049  1.0000
  H   H621      1.0  0.06322  0.63320  0.51952  1.0000
  C   C346      1.0  0.04440  0.58704  0.95626  1.0000
  H   H622      1.0  0.42373  0.46491  0.55820  1.0000
  H   H623      1.0  0.42992  0.48957  0.51337  1.0000
  H   H624      1.0  0.41609  0.41209  0.57383  1.0000
  H   H625      1.0  0.45046  0.47996  0.62084  1.0000
  H   H626      1.0  0.39583  0.37315  0.55831  1.0000
  Fe  Fe38      1.0  0.01925  0.43444  0.88438  1.0000
  H   H627      1.0  0.48022  0.53385  0.89966  1.0000
  C   C347      1.0  0.11631  0.64242  0.61737  1.0000
  Fe  Fe39      1.0  0.00597  0.56458  0.69020  1.0000
  H   H628      1.0  0.25805  0.33716  0.48294  1.0000
  Fe  Fe40      1.0  0.49387  0.38114  0.90178  1.0000
  C   C348      1.0  0.43844  0.64525  0.69695  1.0000
  H   H629      1.0  0.01934  0.50025  0.92741  1.0000
  H   H630      1.0  0.03575  0.52293  0.57488  1.0000
  Fe  Fe41      1.0  0.01128  0.43576  0.95909  1.0000
  H   H631      1.0  0.46904  0.48929  0.89305  1.0000
  C   C349      1.0  0.03311  0.48652  0.78159  1.0000
  H   H632      1.0  0.01372  0.54766  0.85931  1.0000
  C   C350      1.0  0.07401  0.64966  0.59860  1.0000
  H   H633      1.0  0.42844  0.60243  0.84800  1.0000
  H   H634      1.0  0.05573  0.48054  0.88470  1.0000
  C   C351      1.0  0.01596  0.50968  0.90328  1.0000
  C   C352      1.0  0.44727  0.61024  0.85274  1.0000
  C   C353      1.0  0.41492  0.39233  0.89832  1.0000
  C   C354      1.0  0.48881  0.49541  0.89412  1.0000
  C   C355      1.0  0.42612  0.42388  0.52337  1.0000
  C   C356      1.0  0.45020  0.53995  0.78731  1.0000
  C   C357      1.0  0.44527  0.53897  0.75005  1.0000
  H   H635      1.0  0.44649  0.52123  0.79707  1.0000
  H   H636      1.0  0.43664  0.55320  0.79828  1.0000
  H   H637      1.0  0.42574  0.53307  0.74541  1.0000
  H   H638      1.0  0.44782  0.55746  0.73878  1.0000
  H   H639      1.0  0.45814  0.52558  0.73790  1.0000
  C   C358      1.0  0.46830  0.56825  0.84892  1.0000
  H   H640      1.0  0.10205  0.61921  0.50692  1.0000
  H   H641      1.0  0.46533  0.48851  0.54828  1.0000
  H   H642      1.0  0.01604  0.60103  0.52178  1.0000
  S   S77       1.0  0.01684  0.60484  0.68983  1.0000
  S   S78       1.0  0.50403  0.55403  0.58591  1.0000
  C   C359      1.0  0.36286  0.33990  0.84131  1.0000
  C   C360      1.0  0.34511  0.34855  0.81399  1.0000
  S   S79       1.0  0.01440  0.39468  0.96551  1.0000
  C   C361      1.0  0.49118  0.52210  0.88238  1.0000
  C   C362      1.0  0.43224  0.64871  0.75601  1.0000
  H   H643      1.0  0.43326  0.34552  0.79225  1.0000
  H   H644      1.0  0.47451  0.56996  0.87510  1.0000
  C   C363      1.0  0.45363  0.33313  0.87059  1.0000
  H   H645      1.0  0.02768  0.42050  0.57546  1.0000
  C   C364      1.0  0.12506  0.66136  0.59649  1.0000
  H   H646      1.0  0.12936  0.33506  0.89138  1.0000
  H   H647      1.0  0.42813  0.41473  0.49876  1.0000
  H   H648      1.0  0.01874  0.63044  0.50133  1.0000
  H   H649      1.0  0.02649  0.37905  0.52345  1.0000
  H   H650      1.0  0.49718  0.34391  0.80567  1.0000
  H   H651      1.0  0.03452  0.57998  0.97846  1.0000
  C   C365      1.0  0.00441  0.51965  0.76514  1.0000
  H   H652      1.0  0.48223  0.41548  0.48556  1.0000
  H   H653      1.0  0.00817  0.39343  0.57664  1.0000
  H   H654      1.0  0.00643  0.56637  0.47943  1.0000
  H   H655      1.0  0.04051  0.48675  0.97897  1.0000
  Fe  Fe42      1.0  0.20601  0.76917  0.07335  1.0000
  S   S80       1.0  0.19942  0.79713  0.03309  1.0000
  S   S81       1.0  0.22885  0.78094  0.11807  1.0000
  Fe  Fe43      1.0  0.17434  0.73073  0.03901  1.0000
  H   H656      1.0  0.07307  0.96589  0.99777  1.0000
  S   S82       1.0  0.15920  0.69154  0.04148  1.0000
  Fe  Fe44      1.0  0.20747  0.76580  0.99745  1.0000
  C   C366      1.0  0.31420  0.76487  0.98576  1.0000
  Fe  Fe45      1.0  0.15936  0.78487  0.03437  1.0000
  S   S83       1.0  0.12356  0.80806  0.02932  1.0000
  S   S84       1.0  0.21590  0.73855  0.03819  1.0000
  S   S85       1.0  0.16532  0.75928  0.07739  1.0000
  H   H657      1.0  0.36140  0.76335  0.08476  1.0000
  S   S86       1.0  0.03224  0.94372  0.14262  1.0000
  H   H658      1.0  0.08947  0.94267  0.11322  1.0000
  H   H659      1.0  0.21242  0.69477  0.19954  1.0000
  Fe  Fe46      1.0  0.03933  0.90286  0.13756  1.0000
  S   S87       1.0  0.07930  0.88952  0.12806  1.0000
  H   H660      1.0  0.42585  0.71598  0.21134  1.0000
  S   S88       1.0  0.49115  0.95304  0.25018  1.0000
  C   C367      1.0  0.02083  0.98818  0.06209  1.0000
  Fe  Fe47      1.0  0.49206  0.88493  0.16557  1.0000
  S   S89       1.0  0.46910  0.85014  0.15538  1.0000
  S   S90       1.0  0.48178  0.92541  0.16187  1.0000
  Fe  Fe48      1.0  0.37843  0.71347  0.27429  1.0000
  S   S91       1.0  0.37221  0.73464  0.22742  1.0000
  S   S92       1.0  0.41284  0.68843  0.27947  1.0000
  Fe  Fe49      1.0  0.33504  0.74082  0.31132  1.0000
  S   S93       1.0  0.32666  0.76390  0.26610  1.0000
  S   S94       1.0  0.31594  0.75070  0.36123  1.0000
  Fe  Fe50      1.0  0.33134  0.72862  0.23741  1.0000
  S   S95       1.0  0.30719  0.71394  0.19550  1.0000
  Fe  Fe51      1.0  0.36836  0.76811  0.25973  1.0000
  S   S96       1.0  0.38673  0.80582  0.25325  1.0000
  S   S97       1.0  0.33763  0.70495  0.28273  1.0000
  S   S98       1.0  0.37662  0.74737  0.30662  1.0000
  H   H661      1.0  0.33789  0.78060  0.10750  1.0000
  H   H662      1.0  0.49879  0.93036  0.31577  1.0000
  H   H663      1.0  0.47882  0.97890  0.07579  1.0000
  H   H664      1.0  0.30577  0.71569  0.03280  1.0000
  H   H665      1.0  0.18286  0.76524  0.14893  1.0000
  C   C368      1.0  0.22120  0.79474  0.35792  1.0000
  C   C369      1.0  0.44644  0.83786  0.18298  1.0000
  C   C370      1.0  0.43586  0.81465  0.17622  1.0000
  C   C371      1.0  0.41771  0.80442  0.19749  1.0000
  C   C372      1.0  0.41002  0.81726  0.22587  1.0000
  C   C373      1.0  0.42063  0.84043  0.23252  1.0000
  C   C374      1.0  0.43870  0.85067  0.21127  1.0000
  H   H666      1.0  0.44145  0.80478  0.15414  1.0000
  H   H667      1.0  0.40912  0.78704  0.19154  1.0000
  H   H668      1.0  0.41469  0.85064  0.25421  1.0000
  H   H669      1.0  0.44653  0.86858  0.21673  1.0000
  C   C375      1.0  0.24692  0.73109  0.42592  1.0000
  C   C376      1.0  0.26334  0.74992  0.43517  1.0000
  C   C377      1.0  0.28447  0.75532  0.41539  1.0000
  C   C378      1.0  0.28967  0.74199  0.38611  1.0000
  C   C379      1.0  0.27348  0.72291  0.37717  1.0000
  C   C380      1.0  0.25224  0.71767  0.39677  1.0000
  H   H670      1.0  0.26478  0.82385  0.26762  1.0000
  H   H671      1.0  0.29674  0.77017  0.42262  1.0000
  H   H672      1.0  0.27724  0.71228  0.35503  1.0000
  H   H673      1.0  0.23978  0.70303  0.38931  1.0000
  C   C381      1.0  0.25104  0.76215  0.13849  1.0000
  C   C382      1.0  0.26350  0.77164  0.16631  1.0000
  C   C383      1.0  0.28094  0.75716  0.18381  1.0000
  C   C384      1.0  0.28610  0.73305  0.17352  1.0000
  C   C385      1.0  0.27390  0.72363  0.14540  1.0000
  C   C386      1.0  0.25642  0.73814  0.12788  1.0000
  H   H674      1.0  0.25964  0.79034  0.17431  1.0000
  H   H675      1.0  0.29034  0.76465  0.20527  1.0000
  H   H676      1.0  0.27794  0.70502  0.13721  1.0000
  H   H677      1.0  0.24708  0.73077  0.10631  1.0000
  C   C387      1.0  0.11097  0.82909  0.05888  1.0000
  C   C388      1.0  0.08574  0.83649  0.05622  1.0000
  C   C389      1.0  0.07547  0.85438  0.07783  1.0000
  C   C390      1.0  0.09046  0.86534  0.10207  1.0000
  C   C391      1.0  0.11562  0.85785  0.10481  1.0000
  C   C392      1.0  0.12578  0.83969  0.08359  1.0000
  H   H678      1.0  0.07418  0.82850  0.03707  1.0000
  H   H679      1.0  0.05616  0.86010  0.07523  1.0000
  H   H680      1.0  0.12742  0.86630  0.12336  1.0000
  H   H681      1.0  0.14523  0.83435  0.08580  1.0000
  C   C393      1.0  0.12660  0.69669  0.09480  1.0000
  C   C394      1.0  0.13587  0.68140  0.06963  1.0000
  H   H682      1.0  0.13237  0.71572  0.09608  1.0000
  C   C395      1.0  0.45147  0.76183  0.08259  1.0000
  H   H683      1.0  0.01578  0.69452  0.06792  1.0000
  C   C396      1.0  0.45916  0.68198  0.13578  1.0000
  C   C397      1.0  0.26080  0.75851  0.29339  1.0000
  N   N23       1.0  0.24649  0.78073  0.30593  1.0000
  H   H684      1.0  0.08977  0.96958  0.04633  1.0000
  H   H685      1.0  0.36854  0.70125  0.11599  1.0000
  H   H686      1.0  0.24871  0.82666  0.02807  1.0000
  H   H687      1.0  0.24701  0.82520  0.07259  1.0000
  H   H688      1.0  0.07256  0.97071  0.10289  1.0000
  H   H689      1.0  0.40728  0.69629  0.16735  1.0000
  N   N24       1.0  0.01747  0.97996  0.40855  1.0000
  H   H690      1.0  0.08725  0.88012  0.01672  1.0000
  H   H691      1.0  0.03183  0.73700  0.11349  1.0000
  H   H692      1.0  0.21823  0.77440  0.40434  1.0000
  H   H693      1.0  0.29317  0.84407  0.30847  1.0000
  H   H694      1.0  0.43122  0.75851  0.14201  1.0000
  H   H695      1.0  0.24901  0.69729  0.27116  1.0000
  C   C398      1.0  0.03087  0.96201  0.43140  1.0000
  H   H696      1.0  0.06842  0.91873  0.06715  1.0000
  H   H697      1.0  0.50294  0.68210  0.21342  1.0000
  H   H698      1.0  0.41626  0.69959  0.12569  1.0000
  H   H699      1.0  0.31428  0.81783  0.30593  1.0000
  C   C399      1.0  0.17020  0.75543  0.16609  1.0000
  H   H700      1.0  0.48157  0.83530  0.24329  1.0000
  H   H701      1.0  0.04220  0.94855  0.41679  1.0000
  H   H702      1.0  0.22110  0.75883  0.33545  1.0000
  C   C400      1.0  0.49224  0.98629  0.05850  1.0000
  H   H703      1.0  0.47724  0.97166  0.40251  1.0000
  N   N25       1.0  0.43783  0.72169  0.16067  1.0000
  H   H704      1.0  0.20821  0.77910  0.28811  1.0000
  H   H705      1.0  0.03312  0.81425  0.15102  1.0000
  C   C401      1.0  0.05777  0.95216  0.99652  1.0000
  H   H706      1.0  0.10784  0.94243  0.05613  1.0000
  C   C402      1.0  0.44523  0.74331  0.13949  1.0000
  C   C403      1.0  0.18601  0.71345  0.14654  1.0000
  H   H707      1.0  0.49638  0.69959  0.33471  1.0000
  N   N26       1.0  0.30020  0.76751  0.01821  1.0000
  C   C404      1.0  0.28614  0.79175  0.01927  1.0000
  C   C405      1.0  0.21539  0.68606  0.17487  1.0000
  C   C406      1.0  0.28108  0.74715  0.01989  1.0000
  C   C407      1.0  0.31760  0.76444  0.04741  1.0000
  C   C408      1.0  0.33638  0.78549  0.05384  1.0000
  C   C409      1.0  0.26984  0.79639  0.05043  1.0000
  H   H708      1.0  0.01493  0.75063  0.05683  1.0000
  H   H709      1.0  0.33492  0.80028  0.98746  1.0000
  H   H710      1.0  0.49438  0.80580  0.19956  1.0000
  H   H711      1.0  0.00454  0.88138  0.03264  1.0000
  C   C410      1.0  0.25960  0.82278  0.05094  1.0000
  C   C411      1.0  0.27031  0.70164  0.01788  1.0000
  H   H712      1.0  0.04015  0.69388  0.09868  1.0000
  C   C412      1.0  0.07266  0.99691  0.18388  1.0000
  H   H713      1.0  0.27508  0.83623  0.05309  1.0000
  H   H714      1.0  0.07095  0.98148  0.16593  1.0000
  H   H715      1.0  0.43377  0.77263  0.08405  1.0000
  H   H716      1.0  0.27164  0.74712  0.04444  1.0000
  H   H717      1.0  0.30674  0.76152  0.07060  1.0000
  H   H718      1.0  0.05856  0.98672  0.36123  1.0000
  H   H719      1.0  0.32687  0.80362  0.05628  1.0000
  H   H720      1.0  0.23284  0.68390  0.11145  1.0000
  H   H721      1.0  0.25359  0.78381  0.05052  1.0000
  H   H722      1.0  0.28060  0.79358  0.07361  1.0000
  H   H723      1.0  0.00431  0.71832  0.11859  1.0000
  C   C413      1.0  0.06082  0.99404  0.38674  1.0000
  H   H724      1.0  0.36217  0.70446  0.15983  1.0000
  C   C414      1.0  0.01137  0.96804  0.37577  1.0000
  H   H725      1.0  0.44397  0.66858  0.14071  1.0000
  H   H726      1.0  0.19131  0.77162  0.37752  1.0000
  H   H727      1.0  0.04147  0.96149  0.00823  1.0000
  H   H728      1.0  0.32909  0.74742  0.04457  1.0000
  H   H729      1.0  0.47180  0.72873  0.21559  1.0000
  H   H730      1.0  0.04332  0.71344  0.06296  1.0000
  H   H731      1.0  0.04457  0.97193  0.44737  1.0000
  C   C415      1.0  0.42501  0.66879  0.24819  1.0000
  C   C416      1.0  0.00913  0.78269  0.10616  1.0000
  C   C417      1.0  0.01693  0.72691  0.10018  1.0000
  H   H732      1.0  0.01928  0.77357  0.12687  1.0000
  C   C418      1.0  0.16971  0.67706  0.17488  1.0000
  C   C419      1.0  0.44913  0.74989  0.24907  1.0000
  H   H733      1.0  0.10338  0.69909  0.13843  1.0000
  H   H734      1.0  0.27853  0.71167  0.27992  1.0000
  H   H735      1.0  0.26232  0.70243  0.04324  1.0000
  C   C420      1.0  0.21002  0.79752  0.22425  1.0000
  H   H736      1.0  0.44314  0.73363  0.26369  1.0000
  H   H737      1.0  0.46548  0.75832  0.26157  1.0000
  H   H738      1.0  0.15189  0.75249  0.15372  1.0000
  H   H739      1.0  0.16705  0.76732  0.18810  1.0000
  S   S99       1.0  0.02217  0.95851  0.23551  1.0000
  H   H740      1.0  0.45415  0.97367  0.19042  1.0000
  H   H741      1.0  0.49858  0.96650  0.35251  1.0000
  H   H742      1.0  0.20910  0.69915  0.08708  1.0000
  H   H743      1.0  0.25951  0.76061  0.45724  1.0000
  H   H744      1.0  0.26604  0.75040  0.00122  1.0000
  S   S100      1.0  0.16652  0.75560  0.99547  1.0000
  H   H745      1.0  0.26059  0.72104  0.24399  1.0000
  H   H746      1.0  0.46290  0.75903  0.20113  1.0000
  H   H747      1.0  0.19134  0.79046  0.23133  1.0000
  C   C421      1.0  0.45617  0.74221  0.21382  1.0000
  H   H748      1.0  0.24862  0.79271  0.23667  1.0000
  H   H749      1.0  0.43376  0.72711  0.09144  1.0000
  C   C422      1.0  0.35086  0.78104  0.08600  1.0000
  H   H750      1.0  0.48835  0.92185  0.35646  1.0000
  H   H751      1.0  0.33955  0.76968  0.47096  1.0000
  H   H752      1.0  0.21036  0.81784  0.22778  1.0000
  H   H753      1.0  0.10621  0.97042  0.10344  1.0000
  H   H754      1.0  0.16900  0.72272  0.19530  1.0000
  H   H755      1.0  0.43365  0.76371  0.24878  1.0000
  H   H756      1.0  0.27786  0.68278  0.01354  1.0000
  H   H757      1.0  0.46702  0.72744  0.09883  1.0000
  H   H758      1.0  0.45789  0.69246  0.18649  1.0000
  C   C423      1.0  0.18173  0.73084  0.17671  1.0000
  H   H759      1.0  0.41883  0.74572  0.19568  1.0000
  C   C424      1.0  0.49662  0.99333  0.29052  1.0000
  C   C425      1.0  0.29988  0.82876  0.29239  1.0000
  H   H760      1.0  0.38890  0.74217  0.16118  1.0000
  H   H761      1.0  0.13235  0.87205  0.01900  1.0000
  C   C426      1.0  0.23053  0.78514  0.24483  1.0000
  H   H762      1.0  0.19987  0.73479  0.18902  1.0000
  H   H763      1.0  0.05034  0.98540  0.28428  1.0000
  S   S101      1.0  0.02016  0.89456  0.18575  1.0000
  C   C427      1.0  0.09983  0.89612  0.01986  1.0000
  H   H764      1.0  0.20153  0.72179  0.13215  1.0000
  C   C428      1.0  0.49907  0.82441  0.24599  1.0000
  H   H765      1.0  0.02891  0.98029  0.08420  1.0000
  H   H766      1.0  0.17599  0.67376  0.10892  1.0000
  H   H767      1.0  0.36438  0.79622  0.09002  1.0000
  H   H768      1.0  0.45524  0.75751  0.05616  1.0000
  H   H769      1.0  0.02345  0.78643  0.08675  1.0000
  C   C429      1.0  0.23498  0.77381  0.33882  1.0000
  H   H770      1.0  0.03514  0.82719  0.10984  1.0000
  C   C430      1.0  0.08941  0.95938  0.09734  1.0000
  H   H771      1.0  0.16931  0.71457  0.13008  1.0000
  C   C431      1.0  0.20592  0.78442  0.38667  1.0000
  H   H772      1.0  0.00576  0.98226  0.35730  1.0000
  C   C432      1.0  0.08990  0.95222  0.06075  1.0000
  C   C433      1.0  0.11003  0.68724  0.11870  1.0000
  H   H773      1.0  0.22997  0.69759  0.16301  1.0000
  C   C434      1.0  0.22595  0.78895  0.28256  1.0000
  H   H774      1.0  0.28592  0.79796  0.26534  1.0000
  H   H775      1.0  0.05026  0.94533  0.06040  1.0000
  C   C435      1.0  0.26485  0.80123  0.31246  1.0000
  S   S102      1.0  0.21915  0.72400  0.44886  1.0000
  C   C436      1.0  0.04482  0.90965  0.01203  1.0000
  H   H776      1.0  0.22684  0.73736  0.28045  1.0000
  H   H777      1.0  0.25547  0.81729  0.32431  1.0000
  H   H778      1.0  0.46703  0.77329  0.09221  1.0000
  H   H779      1.0  0.27939  0.79480  0.33044  1.0000
  C   C437      1.0  0.24570  0.73423  0.29113  1.0000
  H   H780      1.0  0.19657  0.79975  0.40023  1.0000
  H   H781      1.0  0.02833  0.95915  0.36501  1.0000
  H   H782      1.0  0.29897  0.80762  0.01710  1.0000
  H   H783      1.0  0.21309  0.79351  0.19754  1.0000
  H   H784      1.0  0.24326  0.72629  0.31625  1.0000
  H   H785      1.0  0.22155  0.80884  0.28671  1.0000
  C   C438      1.0  0.45866  0.70263  0.16249  1.0000
  C   C439      1.0  0.02247  0.82366  0.13102  1.0000
  C   C440      1.0  0.06734  0.93564  0.05159  1.0000
  C   C441      1.0  0.44929  0.73788  0.10228  1.0000
  C   C442      1.0  0.25936  0.71494  0.27019  1.0000
  H   H786      1.0  0.23053  0.76524  0.23839  1.0000
  C   C443      1.0  0.43331  0.73107  0.19548  1.0000
  H   H787      1.0  0.46307  0.75135  0.14836  1.0000
  H   H788      1.0  0.47714  0.71192  0.16222  1.0000
  H   H789      1.0  0.23487  0.80776  0.36887  1.0000
  H   H790      1.0  0.24955  0.76628  0.35577  1.0000
  H   H791      1.0  0.49805  0.97645  0.17296  1.0000
  H   H792      1.0  0.20829  0.80515  0.34149  1.0000
  H   H793      1.0  0.07068  0.97993  0.40180  1.0000
  H   H794      1.0  0.27713  0.75460  0.30979  1.0000
  H   H795      1.0  0.26913  0.76202  0.26875  1.0000
  H   H796      1.0  0.30883  0.83679  0.27009  1.0000
  C   C444      1.0  0.02976  0.70596  0.08111  1.0000
  C   C445      1.0  0.41370  0.71018  0.14894  1.0000
  Fe  Fe52      1.0  0.01083  0.93534  0.18935  1.0000
  H   H797      1.0  0.45645  0.68916  0.11044  1.0000
  H   H798      1.0  0.35030  0.78621  0.03357  1.0000
  C   C446      1.0  0.29119  0.72051  0.01435  1.0000
  H   H799      1.0  0.35182  0.72790  0.13148  1.0000
  C   C447      1.0  0.27817  0.81228  0.28193  1.0000
  H   H800      1.0  0.39554  0.73862  0.11825  1.0000
  N   N27       1.0  0.06473  0.92909  0.01539  1.0000
  C   C448      1.0  0.36715  0.71456  0.13685  1.0000
  H   H801      1.0  0.04885  0.89399  0.02907  1.0000
  H   H802      1.0  0.13900  0.90374  0.00923  1.0000
  H   H803      1.0  0.10342  0.93359  0.00088  1.0000
  H   H804      1.0  0.10237  0.89959  0.04669  1.0000
  C   C449      1.0  0.39177  0.72833  0.14144  1.0000
  N   N28       1.0  0.19156  0.68680  0.15488  1.0000
  C   C450      1.0  0.03163  0.99311  0.28451  1.0000
  H   H805      1.0  0.25525  0.70522  0.99949  1.0000
  H   H806      1.0  0.23203  0.67006  0.05241  1.0000
  C   C451      1.0  0.48491  0.98705  0.41741  1.0000
  H   H807      1.0  0.03818  0.91412  0.45723  1.0000
  H   H808      1.0  0.29923  0.71827  0.98918  1.0000
  C   C452      1.0  0.21469  0.68143  0.09868  1.0000
  H   H809      1.0  0.26557  0.67260  0.18346  1.0000
  S   S103      1.0  0.00518  0.89636  0.10656  1.0000
  H   H810      1.0  0.02746  0.99665  0.15257  1.0000
  H   H811      1.0  0.48486  0.98146  0.44380  1.0000
  H   H812      1.0  0.47606  0.67331  0.33236  1.0000
  H   H813      1.0  0.27355  0.79322  0.99731  1.0000
  C   C453      1.0  0.08892  0.91897  0.00164  1.0000
  H   H814      1.0  0.32983  0.75132  0.98830  1.0000
  H   H815      1.0  0.06685  0.99036  0.20877  1.0000
  C   C454      1.0  0.12529  0.88866  0.00578  1.0000
  H   H816      1.0  0.01633  0.92517  0.04551  1.0000
  C   C455      1.0  0.01770  0.91821  0.01980  1.0000
  H   H817      1.0  0.15209  0.68707  0.16823  1.0000
  H   H818      1.0  0.00676  0.95992  0.47537  1.0000
  C   C456      1.0  0.01355  0.98344  0.26267  1.0000
  C   C457      1.0  0.01471  0.94725  0.45635  1.0000
  H   H819      1.0  0.49490  0.80778  0.26096  1.0000
  H   H820      1.0  0.39174  0.66830  0.21827  1.0000
  H   H821      1.0  0.47713  0.99062  0.29660  1.0000
  H   H822      1.0  0.17254  0.68071  0.20176  1.0000
  H   H823      1.0  0.49976  0.67994  0.12994  1.0000
  H   H824      1.0  0.24997  0.67184  0.22311  1.0000
  C   C458      1.0  0.45963  0.98784  0.17199  1.0000
  H   H825      1.0  0.01569  0.84170  0.14067  1.0000
  H   H826      1.0  0.45605  0.98039  0.14679  1.0000
  C   C459      1.0  0.19396  0.67278  0.12270  1.0000
  H   H827      1.0  0.01138  0.93310  0.00289  1.0000
  H   H828      1.0  0.04504  0.90138  0.98678  1.0000
  C   C460      1.0  0.49587  0.67910  0.33493  1.0000
  C   C461      1.0  0.03043  0.92799  0.47475  1.0000
  C   C462      1.0  0.48730  0.99386  0.17631  1.0000
  C   C463      1.0  0.48391  0.66772  0.13635  1.0000
  H   H829      1.0  0.50305  0.67227  0.35907  1.0000
  H   H830      1.0  0.35701  0.74129  0.47655  1.0000
  H   H831      1.0  0.50269  0.67528  0.28307  1.0000
  Fe  Fe53      1.0  0.20547  0.73273  0.57412  1.0000
  S   S104      1.0  0.21224  0.76226  0.53615  1.0000
  S   S105      1.0  0.23386  0.71925  0.61190  1.0000
  Fe  Fe54      1.0  0.15545  0.71728  0.54432  1.0000
  S   S106      1.0  0.15926  0.74518  0.50317  1.0000
  S   S107      1.0  0.11872  0.69571  0.54579  1.0000
  Fe  Fe55      1.0  0.19997  0.73403  0.49870  1.0000
  C   C464      1.0  0.05193  0.94872  0.95915  1.0000
  Fe  Fe56      1.0  0.17121  0.77124  0.54351  1.0000
  S   S108      1.0  0.15613  0.81073  0.54257  1.0000
  S   S109      1.0  0.19490  0.70383  0.53653  1.0000
  S   S110      1.0  0.16563  0.74403  0.58473  1.0000
  Fe  Fe57      1.0  0.03309  0.93540  0.67780  1.0000
  S   S111      1.0  0.06586  0.92972  0.64322  1.0000
  S   S112      1.0  0.03444  0.94788  0.73250  1.0000
  S   S113      1.0  0.02757  0.89902  0.59295  1.0000
  Fe  Fe58      1.0  0.05292  0.89071  0.63577  1.0000
  S   S114      1.0  0.07501  0.85503  0.64226  1.0000
  Fe  Fe59      1.0  0.03829  0.93864  0.60236  1.0000
  H   H832      1.0  0.35900  0.77260  0.94994  1.0000
  S   S115      1.0  0.02249  0.89543  0.67332  1.0000
  H   H833      1.0  0.00460  0.98391  0.57631  1.0000
  S   S116      1.0  0.45788  0.88210  0.67723  1.0000
  H   H834      1.0  0.04930  0.76301  0.61928  1.0000
  Fe  Fe60      1.0  0.36947  0.72903  0.74629  1.0000
  S   S117      1.0  0.37027  0.76667  0.72305  1.0000
  S   S118      1.0  0.38901  0.70175  0.71133  1.0000
  Fe  Fe61      1.0  0.33860  0.74884  0.80656  1.0000
  S   S119      1.0  0.33916  0.78780  0.78722  1.0000
  S   S120      1.0  0.31739  0.73507  0.85296  1.0000
  Fe  Fe62      1.0  0.33014  0.77016  0.73799  1.0000
  S   S121      1.0  0.30097  0.78709  0.70399  1.0000
  Fe  Fe63      1.0  0.37963  0.78068  0.77349  1.0000
  S   S122      1.0  0.41454  0.80438  0.78073  1.0000
  S   S123      1.0  0.32816  0.73160  0.75739  1.0000
  S   S124      1.0  0.38012  0.74285  0.79690  1.0000
  H   H835      1.0  0.24233  0.72040  0.72451  1.0000
  H   H836      1.0  0.36931  0.77001  0.49191  1.0000
  H   H837      1.0  0.50080  0.90180  0.76324  1.0000
  H   H838      1.0  0.23540  0.75217  0.71516  1.0000
  C   C465      1.0  0.15786  0.87560  0.63243  1.0000
  H   H839      1.0  0.19198  0.76099  0.81387  1.0000
  C   C466      1.0  0.44707  0.85955  0.70558  1.0000
  C   C467      1.0  0.42360  0.84875  0.69999  1.0000
  C   C468      1.0  0.41362  0.83152  0.72240  1.0000
  C   C469      1.0  0.42686  0.82516  0.75103  1.0000
  C   C470      1.0  0.45036  0.83597  0.75670  1.0000
  C   C471      1.0  0.46053  0.85294  0.73400  1.0000
  H   H840      1.0  0.41296  0.85385  0.67822  1.0000
  H   H841      1.0  0.39546  0.82352  0.71782  1.0000
  H   H842      1.0  0.46068  0.83126  0.77887  1.0000
  H   H843      1.0  0.47852  0.86122  0.73875  1.0000
  C   C472      1.0  0.25662  0.76427  0.92589  1.0000
  C   C473      1.0  0.26316  0.73923  0.92470  1.0000
  C   C474      1.0  0.28166  0.73073  0.90225  1.0000
  C   C475      1.0  0.29377  0.74697  0.88032  1.0000
  C   C476      1.0  0.28718  0.77200  0.88148  1.0000
  C   C477      1.0  0.26882  0.78052  0.90407  1.0000
  H   H844      1.0  0.24601  0.75132  0.83914  1.0000
  H   H845      1.0  0.28656  0.71133  0.90177  1.0000
  H   H846      1.0  0.29651  0.78487  0.86531  1.0000
  H   H847      1.0  0.26403  0.79994  0.90466  1.0000
  C   C478      1.0  0.25223  0.73858  0.63714  1.0000
  C   C479      1.0  0.27026  0.72777  0.65794  1.0000
  C   C480      1.0  0.28547  0.74246  0.67829  1.0000
  C   C481      1.0  0.28265  0.76811  0.67812  1.0000
  C   C482      1.0  0.26464  0.77894  0.65726  1.0000
  C   C483      1.0  0.24946  0.76423  0.63680  1.0000
  H   H848      1.0  0.27251  0.70792  0.65827  1.0000
  H   H849      1.0  0.29933  0.73390  0.69407  1.0000
  H   H850      1.0  0.26234  0.79878  0.65704  1.0000
  H   H851      1.0  0.23551  0.77269  0.62099  1.0000
  C   C484      1.0  0.13288  0.82227  0.56995  1.0000
  C   C485      1.0  0.12123  0.84502  0.56296  1.0000
  C   C486      1.0  0.10323  0.85519  0.58461  1.0000
  C   C487      1.0  0.09703  0.84283  0.61378  1.0000
  C   C488      1.0  0.10864  0.82010  0.62081  1.0000
  C   C489      1.0  0.12633  0.80976  0.59890  1.0000
  H   H852      1.0  0.12623  0.85486  0.54066  1.0000
  H   H853      1.0  0.09444  0.87270  0.57889  1.0000
  H   H854      1.0  0.10390  0.81036  0.64328  1.0000
  H   H855      1.0  0.13519  0.79229  0.60463  1.0000
  C   C490      1.0  0.25805  0.68268  0.51203  1.0000
  H   H856      1.0  0.25291  0.79831  0.57292  1.0000
  H   H857      1.0  0.01937  0.86388  0.51976  1.0000
  C   C491      1.0  0.03311  0.97608  0.75567  1.0000
  H   H858      1.0  0.41228  0.88129  0.80931  1.0000
  H   H859      1.0  0.06976  0.67796  0.56140  1.0000
  S   S125      1.0  0.05226  0.96107  0.55876  1.0000
  H   H860      1.0  0.30460  0.74664  0.49507  1.0000
  H   H861      1.0  0.44502  0.75161  0.79676  1.0000
  S   S126      1.0  0.49907  0.94140  0.66926  1.0000
  H   H862      1.0  0.47237  0.94719  0.74779  1.0000
  C   C492      1.0  0.25800  0.70345  0.79102  1.0000
  H   H863      1.0  0.14479  0.66560  0.59565  1.0000
  H   H864      1.0  0.49003  0.81425  0.64551  1.0000
  C   C493      1.0  0.34504  0.72235  0.61737  1.0000
  H   H865      1.0  0.09341  0.76187  0.59991  1.0000
  H   H866      1.0  0.30883  0.79988  0.95954  1.0000
  H   H867      1.0  0.24360  0.69599  0.77406  1.0000
  H   H868      1.0  0.45528  0.96078  0.69819  1.0000
  H   H869      1.0  0.27252  0.73280  0.75985  1.0000
  H   H870      1.0  0.21378  0.78549  0.82144  1.0000
  C   C494      1.0  0.04259  0.97288  0.94385  1.0000
  H   H871      1.0  0.46047  0.73075  0.64976  1.0000
  H   H872      1.0  0.39670  0.90089  0.74076  1.0000
  H   H873      1.0  0.03917  0.75086  0.57967  1.0000
  S   S127      1.0  0.23353  0.77644  0.95382  1.0000
  H   H874      1.0  0.12372  0.88408  0.97905  1.0000
  H   H875      1.0  0.42751  0.89153  0.75299  1.0000
  H   H876      1.0  0.19713  0.74730  0.87314  1.0000
  C   C495      1.0  0.22791  0.73512  0.72647  1.0000
  N   N29       1.0  0.24065  0.74811  0.78601  1.0000
  H   H877      1.0  0.46454  0.93025  0.80828  1.0000
  H   H878      1.0  0.04351  0.81350  0.63190  1.0000
  C   C496      1.0  0.28172  0.68799  0.78625  1.0000
  H   H879      1.0  0.05651  0.98780  0.94735  1.0000
  H   H880      1.0  0.43264  0.96133  0.81971  1.0000
  H   H881      1.0  0.25174  0.70069  0.81692  1.0000
  C   C497      1.0  0.20888  0.76630  0.82808  1.0000
  H   H882      1.0  0.33955  0.71094  0.56664  1.0000
  H   H883      1.0  0.23225  0.78573  0.77105  1.0000
  C   C498      1.0  0.27285  0.81289  0.78756  1.0000
  H   H884      1.0  0.45885  0.90115  0.78898  1.0000
  H   H885      1.0  0.25567  0.82436  0.78513  1.0000
  H   H886      1.0  0.35243  0.74565  0.53793  1.0000
  H   H887      1.0  0.40206  0.94551  0.71833  1.0000
  H   H888      1.0  0.33501  0.77353  0.53233  1.0000
  H   H889      1.0  0.17729  0.87875  0.62386  1.0000
  Fe  Fe64      1.0  0.49624  0.89994  0.67093  1.0000
  C   C499      1.0  0.49442  0.81377  0.67240  1.0000
  H   H890      1.0  0.20485  0.75370  0.76220  1.0000
  C   C500      1.0  0.22016  0.73971  0.76299  1.0000
  C   C501      1.0  0.44776  0.73319  0.78511  1.0000
  C   C502      1.0  0.35194  0.75924  0.48813  1.0000
  H   H891      1.0  0.27737  0.73682  0.80274  1.0000
  H   H892      1.0  0.28567  0.82199  0.80538  1.0000
  H   H893      1.0  0.01861  0.91832  0.49317  1.0000
  C   C503      1.0  0.32457  0.78868  0.96966  1.0000
  C   C504      1.0  0.05186  0.78914  0.57732  1.0000
  H   H894      1.0  0.28238  0.81181  0.76321  1.0000
  H   H895      1.0  0.46996  0.67921  0.66689  1.0000
  C   C505      1.0  0.23070  0.74801  0.82097  1.0000
  C   C506      1.0  0.41570  0.66881  0.75126  1.0000
  N   N30       1.0  0.02850  0.80424  0.58375  1.0000
  H   H896      1.0  0.49568  0.76423  0.68711  1.0000
  C   C507      1.0  0.20187  0.76620  0.86474  1.0000
  H   H897      1.0  0.22349  0.72944  0.82740  1.0000
  H   H898      1.0  0.49034  0.69614  0.63966  1.0000
  C   C508      1.0  0.24875  0.77359  0.77569  1.0000
  H   H899      1.0  0.33386  0.72795  0.63937  1.0000
  C   C509      1.0  0.26307  0.73115  0.78430  1.0000
  H   H900      1.0  0.34813  0.79983  0.92862  1.0000
  H   H901      1.0  0.21757  0.77328  0.87990  1.0000
  H   H902      1.0  0.18540  0.77839  0.86896  1.0000
  S   S128      1.0  0.00633  0.94679  0.63728  1.0000
  N   N31       1.0  0.29761  0.73767  0.54645  1.0000
  C   C510      1.0  0.31094  0.73899  0.57940  1.0000
  C   C511      1.0  0.27786  0.75769  0.54539  1.0000
  C   C512      1.0  0.28430  0.71317  0.54473  1.0000
  C   C513      1.0  0.31501  0.73950  0.51704  1.0000
  C   C514      1.0  0.47530  0.79809  0.69087  1.0000
  H   H903      1.0  0.47940  0.79967  0.71771  1.0000
  C   C515      1.0  0.26656  0.70945  0.51471  1.0000
  C   C516      1.0  0.28694  0.78461  0.54913  1.0000
  C   C517      1.0  0.26484  0.80258  0.55119  1.0000
  H   H904      1.0  0.04424  0.85614  0.49139  1.0000
  H   H905      1.0  0.02961  0.99540  0.83673  1.0000
  C   C518      1.0  0.34212  0.78255  0.94089  1.0000
  H   H906      1.0  0.29705  0.74076  0.59981  1.0000
  H   H907      1.0  0.32241  0.75587  0.58145  1.0000
  H   H908      1.0  0.26762  0.75728  0.52142  1.0000
  H   H909      1.0  0.26364  0.75429  0.56504  1.0000
  H   H910      1.0  0.27311  0.71016  0.56758  1.0000
  H   H911      1.0  0.01151  0.78317  0.54418  1.0000
  H   H912      1.0  0.45661  0.80624  0.68619  1.0000
  H   H913      1.0  0.14483  0.88376  0.61396  1.0000
  C   C519      1.0  0.03252  0.82944  0.56870  1.0000
  H   H914      1.0  0.41217  0.97583  0.76372  1.0000
  C   C520      1.0  0.49630  0.91401  0.78451  1.0000
  C   C521      1.0  0.20546  0.72702  0.70577  1.0000
  C   C522      1.0  0.48685  0.69090  0.66581  1.0000
  H   H915      1.0  0.24945  0.72094  0.51758  1.0000
  H   H916      1.0  0.29818  0.78725  0.57189  1.0000
  C   C523      1.0  0.02542  0.80779  0.62063  1.0000
  H   H917      1.0  0.25335  0.80167  0.52830  1.0000
  H   H918      1.0  0.46725  0.72673  0.78934  1.0000
  H   H919      1.0  0.07891  0.73204  0.59715  1.0000
  H   H920      1.0  0.28423  0.77674  0.80313  1.0000
  H   H921      1.0  0.29799  0.78996  0.52711  1.0000
  H   H922      1.0  0.27183  0.82171  0.55399  1.0000
  C   C524      1.0  0.50317  0.99130  0.52404  1.0000
  C   C525      1.0  0.03503  0.98580  0.54164  1.0000
  H   H923      1.0  0.46179  0.91836  0.73349  1.0000
  H   H924      1.0  0.05076  0.85803  0.71203  1.0000
  C   C526      1.0  0.32788  0.71659  0.58808  1.0000
  H   H925      1.0  0.42684  0.97847  0.69750  1.0000
  C   C527      1.0  0.03975  0.82995  0.53152  1.0000
  H   H926      1.0  0.43900  0.93378  0.65296  1.0000
  H   H927      1.0  0.05472  0.78635  0.55030  1.0000
  H   H928      1.0  0.06857  0.79938  0.58627  1.0000
  H   H929      1.0  0.25773  0.78950  0.82475  1.0000
  H   H930      1.0  0.08333  0.74997  0.56023  1.0000
  H   H931      1.0  0.05926  0.82323  0.52812  1.0000
  H   H932      1.0  0.43487  0.71998  0.79716  1.0000
  H   H933      1.0  0.33251  0.77091  0.92219  1.0000
  H   H934      1.0  0.29809  0.69772  0.54388  1.0000
  H   H935      1.0  0.02091  0.79023  0.63318  1.0000
  H   H936      1.0  0.42467  0.92265  0.70795  1.0000
  N   N32       1.0  0.11973  0.89598  0.71088  1.0000
  C   C528      1.0  0.09312  0.88867  0.71872  1.0000
  C   C529      1.0  0.12150  0.92342  0.70386  1.0000
  C   C530      1.0  0.12723  0.88244  0.67962  1.0000
  C   C531      1.0  0.13757  0.88863  0.73809  1.0000
  C   C532      1.0  0.13185  0.89939  0.77280  1.0000
  C   C533      1.0  0.08908  0.86150  0.72964  1.0000
  C   C534      1.0  0.15397  0.88752  0.66641  1.0000
  C   C535      1.0  0.10312  0.94085  0.72243  1.0000
  H   H937      1.0  0.41737  0.67116  0.66729  1.0000
  C   C536      1.0  0.14846  0.88745  0.79917  1.0000
  C   C537      1.0  0.06137  0.85632  0.73555  1.0000
  C   C538      1.0  0.07871  0.75109  0.58702  1.0000
  H   H938      1.0  0.08087  0.89241  0.69694  1.0000
  H   H939      1.0  0.08509  0.90001  0.73900  1.0000
  H   H940      1.0  0.14083  0.93009  0.70859  1.0000
  H   H941      1.0  0.11801  0.92725  0.67710  1.0000
  H   H942      1.0  0.11386  0.88708  0.65933  1.0000
  H   H943      1.0  0.12616  0.86215  0.68282  1.0000
  H   H944      1.0  0.13888  0.86816  0.73984  1.0000
  H   H945      1.0  0.15686  0.89469  0.73213  1.0000
  H   H946      1.0  0.11216  0.89645  0.78021  1.0000
  H   H947      1.0  0.13579  0.91946  0.77304  1.0000
  H   H948      1.0  0.09565  0.84813  0.71077  1.0000
  H   H949      1.0  0.09906  0.85764  0.75317  1.0000
  H   H950      1.0  0.16823  0.87952  0.68332  1.0000
  H   H951      1.0  0.15752  0.90755  0.66382  1.0000
  H   H952      1.0  0.08392  0.93778  0.71305  1.0000
  H   H953      1.0  0.10309  0.93769  0.74948  1.0000
  H   H954      1.0  0.08636  0.91315  0.97545  1.0000
  C   C539      1.0  0.45993  0.72886  0.67717  1.0000
  C   C540      1.0  0.03235  0.97498  0.79054  1.0000
  H   H955      1.0  0.16854  0.89033  0.79339  1.0000
  H   H956      1.0  0.14442  0.89590  0.82369  1.0000
  H   H957      1.0  0.14473  0.86735  0.80081  1.0000
  H   H958      1.0  0.05170  0.86833  0.53172  1.0000
  H   H959      1.0  0.10845  0.97222  0.68949  1.0000
  H   H960      1.0  0.48207  0.70770  0.71351  1.0000
  H   H961      1.0  0.21121  0.72265  0.77249  1.0000
  H   H962      1.0  0.05342  0.86933  0.75411  1.0000
  H   H963      1.0  0.35616  0.70570  0.62401  1.0000
  N   N33       1.0  0.45690  0.75393  0.69314  1.0000
  C   C541      1.0  0.45980  0.75246  0.73023  1.0000
  H   H964      1.0  0.01675  0.82839  0.68298  1.0000
  C   C542      1.0  0.43101  0.76354  0.68541  1.0000
  H   H965      1.0  0.35815  0.73740  0.61097  1.0000
  H   H966      1.0  0.21145  0.72345  0.67990  1.0000
  C   C543      1.0  0.44198  0.73441  0.74810  1.0000
  C   C544      1.0  0.42604  0.77069  0.64879  1.0000
  H   H967      1.0  0.30173  0.75706  0.96632  1.0000
  H   H968      1.0  0.25396  0.72638  0.94103  1.0000
  C   C545      1.0  0.44140  0.97350  0.80112  1.0000
  C   C546      1.0  0.39899  0.77917  0.64386  1.0000
  H   H969      1.0  0.45626  0.77085  0.74171  1.0000
  H   H970      1.0  0.24854  0.67692  0.53519  1.0000
  H   H971      1.0  0.15470  0.85537  0.63363  1.0000
  H   H972      1.0  0.06901  0.94304  0.94550  1.0000
  H   H973      1.0  0.42628  0.77974  0.70130  1.0000
  H   H974      1.0  0.41684  0.74938  0.69180  1.0000
  H   H975      1.0  0.44333  0.71708  0.68207  1.0000
  H   H976      1.0  0.04737  0.83952  0.58246  1.0000
  C   C547      1.0  0.43164  0.96848  0.76566  1.0000
  H   H977      1.0  0.05911  0.83721  0.74485  1.0000
  H   H978      1.0  0.42229  0.74061  0.74540  1.0000
  H   H979      1.0  0.44365  0.71546  0.73810  1.0000
  H   H980      1.0  0.42937  0.75474  0.63211  1.0000
  H   H981      1.0  0.43821  0.78607  0.64087  1.0000
  H   H982      1.0  0.47933  0.74745  0.73695  1.0000
  C   C548      1.0  0.10920  0.96796  0.71637  1.0000
  H   H983      1.0  0.41000  0.95123  0.65274  1.0000
  C   C549      1.0  0.03864  0.85622  0.51786  1.0000
  H   H984      1.0  0.32176  0.72087  0.50930  1.0000
  H   H985      1.0  0.47691  0.77020  0.65205  1.0000
  H   H986      1.0  0.19740  0.70973  0.71575  1.0000
  H   H987      1.0  0.43899  0.96576  0.64123  1.0000
  H   H988      1.0  0.39598  0.78454  0.61764  1.0000
  H   H989      1.0  0.38588  0.76403  0.64996  1.0000
  H   H990      1.0  0.39476  0.79540  0.65981  1.0000
  N   N34       1.0  0.43247  0.94203  0.75378  1.0000
  C   C550      1.0  0.41499  0.92687  0.77475  1.0000
  C   C551      1.0  0.43034  0.95209  0.65809  1.0000
  C   C552      1.0  0.42253  0.94151  0.71869  1.0000
  C   C553      1.0  0.45903  0.93214  0.75372  1.0000
  C   C554      1.0  0.46826  0.91917  0.78582  1.0000
  C   C555      1.0  0.41006  0.90033  0.76187  1.0000
  C   C556      1.0  0.41012  0.67696  0.71922  1.0000
  H   H991      1.0  0.38121  0.89223  0.79839  1.0000
  H   H992      1.0  0.39444  0.86556  0.77808  1.0000
  C   C557      1.0  0.01224  0.99348  0.55518  1.0000
  C   C558      1.0  0.39879  0.88397  0.78867  1.0000
  C   C559      1.0  0.26645  0.78712  0.80007  1.0000
  H   H993      1.0  0.39641  0.93620  0.77667  1.0000
  H   H994      1.0  0.42169  0.92551  0.80066  1.0000
  C   C560      1.0  0.33895  0.75522  0.52138  1.0000
  H   H995      1.0  0.25875  0.77276  0.75152  1.0000
  C   C561      1.0  0.43487  0.95968  0.69407  1.0000
  C   C562      1.0  0.05292  0.76289  0.59228  1.0000
  C   C563      1.0  0.47680  0.77075  0.67961  1.0000
  H   H996      1.0  0.01268  0.84620  0.62655  1.0000
  H   H997      1.0  0.29672  0.69434  0.80326  1.0000
  H   H998      1.0  0.02463  0.97869  0.95537  1.0000
  H   H999      1.0  0.09515  0.97977  0.72922  1.0000
  H   H1000     1.0  0.28839  0.68926  0.76027  1.0000
  H   H1001     1.0  0.19085  0.74166  0.70536  1.0000
  H   H1002     1.0  0.49381  0.83302  0.68184  1.0000
  H   H1003     1.0  0.27579  0.71446  0.49110  1.0000
  H   H1004     1.0  0.03305  0.95721  0.80264  1.0000
  C   C564      1.0  0.48355  0.71387  0.68741  1.0000
  H   H1005     1.0  0.03942  0.97034  0.91689  1.0000
  H   H1006     1.0  0.27423  0.67025  0.50720  1.0000
  H   H1007     1.0  0.46203  0.97097  0.80182  1.0000
  H   H1008     1.0  0.03730  0.93468  0.95496  1.0000
  H   H1009     1.0  0.31613  0.70065  0.59535  1.0000
  H   H1010     1.0  0.02698  0.81830  0.51661  1.0000
  C   C565      1.0  0.03038  0.99665  0.81002  1.0000
  C   C566      1.0  0.10840  0.67409  0.57583  1.0000
  H   H1011     1.0  0.44331  0.98044  0.74961  1.0000
  H   H1012     1.0  0.27776  0.66835  0.79180  1.0000
  H   H1013     1.0  0.04602  0.93697  0.48831  1.0000
  H   H1014     1.0  0.06244  0.99254  0.50370  1.0000
  H   H1015     1.0  0.40693  0.67769  0.77230  1.0000
  H   H1016     1.0  0.12802  0.97245  0.72624  1.0000
  H   H1017     1.0  0.50079  0.72483  0.68482  1.0000
  H   H1018     1.0  0.01528  0.84091  0.57108  1.0000
  C   C567      1.0  0.08282  0.66822  0.57721  1.0000
  H   H1019     1.0  0.48513  0.98260  0.52153  1.0000
  H   H1020     1.0  0.24460  0.68089  0.49118  1.0000
  C   C568      1.0  0.00591  0.79260  0.56758  1.0000
  C   C569      1.0  0.00554  0.82731  0.63115  1.0000
  H   H1021     1.0  0.50233  0.90464  0.80763  1.0000
  H   H1022     1.0  0.50304  0.67980  0.67474  1.0000
  C   C570      1.0  0.04474  0.99837  0.51415  1.0000
  C   C571      1.0  0.80559  0.17542  0.40452  1.0000
  S   S129      1.0  0.87629  0.24845  0.06323  1.0000
  H   H1023     1.0  0.96043  0.25209  0.46085  1.0000
  H   H1024     1.0  0.63249  0.17012  0.47802  1.0000
  S   S130      1.0  0.83573  0.22233  0.01374  1.0000
  S   S131      1.0  0.81266  0.24216  0.43876  1.0000
  Fe  Fe65      1.0  0.83417  0.24802  0.05814  1.0000
  S   S132      1.0  0.80645  0.23750  0.09997  1.0000
  H   H1025     1.0  0.88600  0.15103  0.44157  1.0000
  S   S133      1.0  0.50552  0.06033  0.38908  1.0000
  S   S134      1.0  0.83411  0.28235  0.02694  1.0000
  H   H1026     1.0  0.81257  0.19408  0.39841  1.0000
  H   H1027     1.0  0.77897  0.14984  0.38245  1.0000
  S   S135      1.0  0.96125  0.15366  0.41452  1.0000
  H   H1028     1.0  0.69026  0.27162  0.99498  1.0000
  Fe  Fe66      1.0  0.66981  0.23277  0.29005  1.0000
  S   S136      1.0  0.66173  0.25670  0.24558  1.0000
  S   S137      1.0  0.65731  0.19266  0.29204  1.0000
  Fe  Fe67      1.0  0.69722  0.27375  0.32558  1.0000
  S   S138      1.0  0.69047  0.30071  0.28432  1.0000
  S   S139      1.0  0.71493  0.28752  0.37304  1.0000
  Fe  Fe68      1.0  0.65137  0.28594  0.28328  1.0000
  S   S140      1.0  0.61470  0.30781  0.27820  1.0000
  Fe  Fe69      1.0  0.70186  0.26945  0.25004  1.0000
  S   S141      1.0  0.72934  0.28106  0.20853  1.0000
  S   S142      1.0  0.65729  0.26108  0.32699  1.0000
  S   S143      1.0  0.71066  0.24336  0.29207  1.0000
  Fe  Fe70      1.0  0.55519  0.11342  0.39043  1.0000
  S   S144      1.0  0.52938  0.10747  0.34735  1.0000
  S   S145      1.0  0.57943  0.14790  0.39492  1.0000
  Fe  Fe71      1.0  0.53341  0.06836  0.42974  1.0000
  H   H1029     1.0  0.97490  0.00990  0.11670  1.0000
  Fe  Fe72      1.0  0.53764  0.06693  0.35425  1.0000
  S   S146      1.0  0.55169  0.04208  0.31275  1.0000
  S   S147      1.0  0.56583  0.07345  0.39461  1.0000
  Fe  Fe73      1.0  0.87620  0.28068  0.02811  1.0000
  C   C572      1.0  0.63523  0.18064  0.32043  1.0000
  C   C573      1.0  0.62778  0.15590  0.31741  1.0000
  C   C574      1.0  0.61042  0.14561  0.33965  1.0000
  C   C575      1.0  0.60040  0.16000  0.36521  1.0000
  C   C576      1.0  0.60752  0.18483  0.36787  1.0000
  C   C577      1.0  0.62494  0.19509  0.34577  1.0000
  H   H1030     1.0  0.63562  0.14457  0.29788  1.0000
  H   H1031     1.0  0.60511  0.12646  0.33732  1.0000
  H   H1032     1.0  0.59953  0.19618  0.38725  1.0000
  H   H1033     1.0  0.63032  0.21416  0.34828  1.0000
  C   C578      1.0  0.62337  0.18667  0.46702  1.0000
  H   H1034     1.0  0.64539  0.25142  0.45163  1.0000
  H   H1035     1.0  0.53882  0.05630  0.17746  1.0000
  H   H1036     1.0  0.55301  0.17592  0.34397  1.0000
  S   S148      1.0  0.52501  0.10928  0.42888  1.0000
  H   H1037     1.0  0.83559  0.15544  0.38164  1.0000
  S   S149      1.0  0.97514  0.08039  0.41570  1.0000
  H   H1038     1.0  0.95930  0.02475  0.44807  1.0000
  C   C579      1.0  0.51646  0.32165  0.33642  1.0000
  C   C580      1.0  0.83044  0.28107  0.20049  1.0000
  C   C581      1.0  0.53484  0.01679  0.29694  1.0000
  H   H1039     1.0  0.97424  0.00294  0.38045  1.0000
  S   S150      1.0  0.90856  0.19509  0.01913  1.0000
  H   H1040     1.0  0.76928  0.30473  0.25773  1.0000
  H   H1041     1.0  0.50827  0.08173  0.22499  1.0000
  C   C582      1.0  0.52128  0.21055  0.28547  1.0000
  H   H1042     1.0  0.76708  0.30889  0.33413  1.0000
  Fe  Fe74      1.0  0.98703  0.11998  0.41673  1.0000
  C   C583      1.0  0.92045  0.17347  0.98973  1.0000
  C   C584      1.0  0.78539  0.25023  0.13022  1.0000
  C   C585      1.0  0.77305  0.23417  0.15216  1.0000
  C   C586      1.0  0.75590  0.24311  0.17613  1.0000
  C   C587      1.0  0.75065  0.26840  0.17853  1.0000
  C   C588      1.0  0.76303  0.28448  0.15663  1.0000
  C   C589      1.0  0.78022  0.27554  0.13271  1.0000
  H   H1043     1.0  0.77674  0.21456  0.15053  1.0000
  H   H1044     1.0  0.74658  0.23040  0.19251  1.0000
  H   H1045     1.0  0.75928  0.30408  0.15818  1.0000
  H   H1046     1.0  0.78944  0.28823  0.11618  1.0000
  C   C590      1.0  0.78570  0.25534  0.42069  1.0000
  C   C591      1.0  0.77618  0.24492  0.39141  1.0000
  C   C592      1.0  0.75448  0.25460  0.37649  1.0000
  C   C593      1.0  0.74225  0.27485  0.39069  1.0000
  C   C594      1.0  0.75170  0.28518  0.42000  1.0000
  C   C595      1.0  0.77335  0.27546  0.43501  1.0000
  H   H1047     1.0  0.78565  0.22935  0.38020  1.0000
  H   H1048     1.0  0.74723  0.24644  0.35405  1.0000
  H   H1049     1.0  0.74224  0.30082  0.43117  1.0000
  H   H1050     1.0  0.78046  0.28353  0.45764  1.0000
  H   H1051     1.0  0.58608  0.01780  0.36225  1.0000
  C   C596      1.0  0.77732  0.31697  0.00676  1.0000
  C   C597      1.0  0.93082  0.18813  0.44400  1.0000
  C   C598      1.0  0.94520  0.16665  0.44883  1.0000
  H   H1052     1.0  0.54662  0.29933  0.29166  1.0000
  H   H1053     1.0  0.53660  0.01624  0.10627  1.0000
  H   H1054     1.0  0.99732  0.13438  0.02409  1.0000
  H   H1055     1.0  0.93006  0.19646  0.41970  1.0000
  C   C599      1.0  0.99964  0.00954  0.00527  1.0000
  H   H1056     1.0  0.56617  0.00347  0.26836  1.0000
  N   N35       1.0  0.54059  0.19209  0.29778  1.0000
  C   C600      1.0  0.52975  0.28987  0.28198  1.0000
  C   C601      1.0  0.53851  0.16810  0.27885  1.0000
  H   H1057     1.0  0.74276  0.20564  0.99458  1.0000
  H   H1058     1.0  0.69407  0.25766  0.10426  1.0000
  H   H1059     1.0  0.84181  0.28090  0.36957  1.0000
  H   H1060     1.0  0.84228  0.26451  0.20510  1.0000
  N   N36       1.0  0.79486  0.28143  0.28528  1.0000
  C   C602      1.0  0.80614  0.27927  0.31943  1.0000
  C   C603      1.0  0.77804  0.25960  0.27960  1.0000
  C   C604      1.0  0.81576  0.28211  0.26026  1.0000
  C   C605      1.0  0.77939  0.30467  0.28187  1.0000
  H   H1061     1.0  0.52629  0.15920  0.39062  1.0000
  H   H1062     1.0  0.52085  0.26823  0.23790  1.0000
  C   C606      1.0  0.53974  0.00504  0.16786  1.0000
  C   C607      1.0  0.79120  0.23404  0.27754  1.0000
  C   C608      1.0  0.77217  0.21349  0.27240  1.0000
  C   C609      1.0  0.52048  0.04673  0.17730  1.0000
  C   C610      1.0  0.98371  0.01338  0.28539  1.0000
  H   H1063     1.0  0.57531  0.02161  0.15142  1.0000
  H   H1064     1.0  0.81906  0.26314  0.32072  1.0000
  H   H1065     1.0  0.79143  0.27540  0.33806  1.0000
  H   H1066     1.0  0.76413  0.25831  0.29992  1.0000
  H   H1067     1.0  0.76664  0.26215  0.25674  1.0000
  H   H1068     1.0  0.99252  0.21338  0.99020  1.0000
  H   H1069     1.0  0.78398  0.27911  0.99413  1.0000
  H   H1070     1.0  0.52527  0.30362  0.34229  1.0000
  H   H1071     1.0  0.00022  0.07745  0.12420  1.0000
  H   H1072     1.0  0.53813  0.06828  0.23688  1.0000
  H   H1073     1.0  0.74475  0.29422  0.30747  1.0000
  H   H1074     1.0  0.96949  0.31725  0.03046  1.0000
  H   H1075     1.0  0.55637  0.02072  0.40953  1.0000
  C   C611      1.0  0.98429  0.02272  0.16719  1.0000
  H   H1076     1.0  0.54210  0.29360  0.23078  1.0000
  H   H1077     1.0  0.80452  0.23321  0.25655  1.0000
  H   H1078     1.0  0.80151  0.22987  0.30070  1.0000
  H   H1079     1.0  0.76106  0.21680  0.24956  1.0000
  H   H1080     1.0  0.78204  0.19550  0.26982  1.0000
  H   H1081     1.0  0.75933  0.21240  0.29393  1.0000
  H   H1082     1.0  0.79036  0.32336  0.98722  1.0000
  C   C612      1.0  0.97935  0.00992  0.40536  1.0000
  H   H1083     1.0  0.96902  0.28136  0.99693  1.0000
  C   C613      1.0  0.75235  0.20976  0.01829  1.0000
  H   H1084     1.0  0.94301  0.00043  0.42620  1.0000
  H   H1085     1.0  0.50773  0.16071  0.33500  1.0000
  H   H1086     1.0  0.79683  0.26437  0.21772  1.0000
  H   H1087     1.0  0.63890  0.33100  0.33528  1.0000
  H   H1088     1.0  0.51724  0.01026  0.42120  1.0000
  H   H1089     1.0  0.99350  0.04376  0.22890  1.0000
  C   C614      1.0  0.76760  0.29139  0.99769  1.0000
  C   C615      1.0  0.50771  0.30850  0.27852  1.0000
  C   C616      1.0  0.77503  0.19258  0.02062  1.0000
  C   C617      1.0  0.56687  0.01384  0.17413  1.0000
  H   H1090     1.0  0.81380  0.29624  0.38433  1.0000
  H   H1091     1.0  0.97697  0.05429  0.11646  1.0000
  C   C618      1.0  0.93978  0.15726  0.99947  1.0000
  H   H1092     1.0  0.83825  0.30437  0.31619  1.0000
  H   H1093     1.0  0.53459  0.11701  0.27408  1.0000
  H   H1094     1.0  0.70042  0.23875  0.46737  1.0000
  H   H1095     1.0  0.69948  0.22490  0.09803  1.0000
  H   H1096     1.0  0.79604  0.29751  0.21684  1.0000
  C   C619      1.0  0.59492  0.23980  0.29089  1.0000
  H   H1097     1.0  0.57750  0.15436  0.27732  1.0000
  H   H1098     1.0  0.84174  0.29797  0.20420  1.0000
  C   C620      1.0  0.50977  0.01298  0.30504  1.0000
  S   S151      1.0  0.89923  0.31562  0.03455  1.0000
  H   H1099     1.0  0.82935  0.26682  0.26472  1.0000
  H   H1100     1.0  0.62938  0.21349  0.42913  1.0000
  H   H1101     1.0  0.93568  0.00904  0.14987  1.0000
  H   H1102     1.0  0.52896  0.22160  0.26460  1.0000
  H   H1103     1.0  0.82588  0.14270  0.46912  1.0000
  H   H1104     1.0  0.51869  0.19135  0.39763  1.0000
  C   C621      1.0  0.63971  0.19758  0.43979  1.0000
  H   H1105     1.0  0.58112  0.19007  0.30113  1.0000
  H   H1106     1.0  0.56959  0.20353  0.26393  1.0000
  C   C622      1.0  0.75910  0.30885  0.30879  1.0000
  H   H1107     1.0  0.61141  0.22737  0.29279  1.0000
  H   H1108     1.0  0.98963  0.30437  0.06103  1.0000
  H   H1109     1.0  0.59935  0.25736  0.30377  1.0000
  H   H1110     1.0  0.94388  0.27511  0.41330  1.0000
  C   C623      1.0  0.97789  0.27954  0.02172  1.0000
  N   N37       1.0  0.73939  0.25600  0.01876  1.0000
  H   H1111     1.0  0.56754  0.11009  0.27357  1.0000
  C   C624      1.0  0.76033  0.23722  0.01991  1.0000
  C   C625      1.0  0.71993  0.25089  0.04482  1.0000
  C   C626      1.0  0.75029  0.28117  0.02518  1.0000
  H   H1112     1.0  0.60145  0.02682  0.40000  1.0000
  C   C627      1.0  0.52647  0.00556  0.01272  1.0000
  C   C628      1.0  0.72973  0.24847  0.08085  1.0000
  H   H1113     1.0  0.94185  0.28095  0.04703  1.0000
  H   H1114     1.0  0.82419  0.28053  0.17426  1.0000
  C   C629      1.0  0.83012  0.29785  0.36746  1.0000
  H   H1115     1.0  0.64195  0.18320  0.42045  1.0000
  C   C630      1.0  0.70836  0.24270  0.10466  1.0000
  H   H1116     1.0  0.75755  0.22570  0.46082  1.0000
  C   C631      1.0  0.00055  0.06220  0.07518  1.0000
  H   H1117     1.0  0.91406  0.26417  0.42855  1.0000
  H   H1118     1.0  0.77201  0.23981  0.04248  1.0000
  H   H1119     1.0  0.70922  0.23397  0.03854  1.0000
  H   H1120     1.0  0.70576  0.26599  0.04535  1.0000
  H   H1121     1.0  0.73523  0.29501  0.02990  1.0000
  H   H1122     1.0  0.76165  0.28090  0.04833  1.0000
  H   H1123     1.0  0.52531  0.27462  0.29904  1.0000
  H   H1124     1.0  0.86398  0.12719  0.44763  1.0000
  N   N38       1.0  0.52162  0.02429  0.15512  1.0000
  H   H1125     1.0  0.82677  0.29931  0.26327  1.0000
  H   H1126     1.0  0.73832  0.26596  0.08919  1.0000
  H   H1127     1.0  0.74383  0.23349  0.08323  1.0000
  H   H1128     1.0  0.73968  0.20498  0.03897  1.0000
  H   H1129     1.0  0.53914  0.17190  0.25175  1.0000
  C   C632      1.0  0.95844  0.26859  0.04513  1.0000
  H   H1130     1.0  0.81015  0.31898  0.33127  1.0000
  H   H1131     1.0  0.71350  0.29338  0.98188  1.0000
  H   H1132     1.0  0.55376  0.12738  0.24000  1.0000
  C   C633      1.0  0.53672  0.27881  0.24837  1.0000
  C   C634      1.0  0.51239  0.04788  0.10013  1.0000
  H   H1133     1.0  0.66080  0.28844  0.39788  1.0000
  H   H1134     1.0  0.91465  0.12665  0.40680  1.0000
  H   H1135     1.0  0.79658  0.16780  0.35279  1.0000
  H   H1136     1.0  0.52229  0.02666  0.22483  1.0000
  C   C635      1.0  0.91739  0.19890  0.47034  1.0000
  H   H1137     1.0  0.78759  0.31642  0.03067  1.0000
  H   H1138     1.0  0.77175  0.18203  0.37623  1.0000
  Fe  Fe75      1.0  0.87791  0.22489  0.01702  1.0000
  H   H1139     1.0  0.94477  0.03088  0.40861  1.0000
  N   N39       1.0  0.68303  0.21706  0.42879  1.0000
  C   C636      1.0  0.68974  0.19808  0.40281  1.0000
  H   H1140     1.0  0.78559  0.19601  0.04390  1.0000
  C   C637      1.0  0.67083  0.23877  0.41175  1.0000
  C   C638      1.0  0.70591  0.22601  0.44699  1.0000
  C   C639      1.0  0.51256  0.17848  0.34689  1.0000
  C   C640      1.0  0.71057  0.20552  0.37814  1.0000
  C   C641      1.0  0.65968  0.25902  0.43470  1.0000
  H   H1141     1.0  0.98236  0.01456  0.19235  1.0000
  C   C642      1.0  0.71572  0.18486  0.35324  1.0000
  C   C643      1.0  0.64706  0.27943  0.41448  1.0000
  H   H1142     1.0  0.67307  0.19366  0.38740  1.0000
  H   H1143     1.0  0.69524  0.18028  0.41453  1.0000
  H   H1144     1.0  0.54088  0.20596  0.34798  1.0000
  H   H1145     1.0  0.65591  0.23253  0.39452  1.0000
  H   H1146     1.0  0.68457  0.24825  0.39570  1.0000
  H   H1147     1.0  0.71785  0.23736  0.43044  1.0000
  C   C644      1.0  0.78715  0.16821  0.37729  1.0000
  C   C645      1.0  0.86839  0.14314  0.43128  1.0000
  C   C646      1.0  0.55883  0.14819  0.28580  1.0000
  H   H1148     1.0  0.70500  0.22214  0.36391  1.0000
  H   H1149     1.0  0.72839  0.20936  0.39112  1.0000
  C   C647      1.0  0.93638  0.28385  0.46512  1.0000
  H   H1150     1.0  0.79159  0.32121  0.28108  1.0000
  C   C648      1.0  0.92770  0.27950  0.42955  1.0000
  H   H1151     1.0  0.91842  0.29649  0.42008  1.0000
  H   H1152     1.0  0.79487  0.17653  0.42795  1.0000
  H   H1153     1.0  0.55299  0.26619  0.25120  1.0000
  H   H1154     1.0  0.72242  0.16797  0.36609  1.0000
  H   H1155     1.0  0.69853  0.18046  0.33901  1.0000
  H   H1156     1.0  0.73029  0.19081  0.33546  1.0000
  C   C649      1.0  0.91867  0.32715  0.00268  1.0000
  C   C650      1.0  0.51307  0.17432  0.38431  1.0000
  S   S152      1.0  0.54336  0.04527  0.47631  1.0000
  N   N40       1.0  0.84750  0.16221  0.43235  1.0000
  C   C651      1.0  0.82758  0.15659  0.40690  1.0000
  H   H1157     1.0  0.96650  0.26581  0.07020  1.0000
  C   C652      1.0  0.51767  0.06505  0.23514  1.0000
  C   C653      1.0  0.85778  0.18779  0.42823  1.0000
  C   C654      1.0  0.86961  0.19386  0.39431  1.0000
  H   H1158     1.0  0.53897  0.07335  0.07797  1.0000
  H   H1159     1.0  0.63154  0.27186  0.39934  1.0000
  C   C655      1.0  0.87477  0.13136  0.39723  1.0000
  C   C656      1.0  0.89835  0.11534  0.39939  1.0000
  C   C657      1.0  0.87544  0.22135  0.39167  1.0000
  H   H1160     1.0  0.59155  0.24391  0.26434  1.0000
  H   H1161     1.0  0.99952  0.06864  0.17872  1.0000
  H   H1162     1.0  0.97041  0.03810  0.16658  1.0000
  H   H1163     1.0  0.67457  0.26778  0.44972  1.0000
  S   S153      1.0  0.99329  0.04810  0.33426  1.0000
  H   H1164     1.0  0.53751  0.31535  0.39940  1.0000
  C   C658      1.0  0.56629  0.20247  0.29117  1.0000
  H   H1165     1.0  0.76159  0.33038  0.00868  1.0000
  H   H1166     1.0  0.84326  0.20180  0.43399  1.0000
  H   H1167     1.0  0.87248  0.19126  0.44685  1.0000
  H   H1168     1.0  0.85705  0.18918  0.37345  1.0000
  H   H1169     1.0  0.88755  0.18366  0.39153  1.0000
  H   H1170     1.0  0.55616  0.24126  0.30382  1.0000
  H   H1171     1.0  0.63928  0.29372  0.43139  1.0000
  H   H1172     1.0  0.53988  0.01284  0.99532  1.0000
  C   C659      1.0  0.99680  0.05924  0.11247  1.0000
  H   H1173     1.0  0.85924  0.11925  0.38907  1.0000
  H   H1174     1.0  0.87784  0.14542  0.37786  1.0000
  C   C660      1.0  0.97560  0.00265  0.14236  1.0000
  C   C661      1.0  0.82139  0.30173  0.33174  1.0000
  H   H1175     1.0  0.52023  0.15919  0.28343  1.0000
  H   H1176     1.0  0.88820  0.22712  0.41190  1.0000
  H   H1177     1.0  0.88468  0.22515  0.36762  1.0000
  H   H1178     1.0  0.85797  0.23251  0.39309  1.0000
  C   C662      1.0  0.57190  0.22812  0.30668  1.0000
  H   H1179     1.0  0.81956  0.13802  0.41174  1.0000
  H   H1180     1.0  0.89590  0.10027  0.41768  1.0000
  H   H1181     1.0  0.99139  0.01769  0.98336  1.0000
  H   H1182     1.0  0.55992  0.14380  0.31251  1.0000
  H   H1183     1.0  0.95207  0.25043  0.03568  1.0000
  H   H1184     1.0  0.78759  0.19531  0.99908  1.0000
  H   H1185     1.0  0.57577  0.22608  0.33357  1.0000
  H   H1186     1.0  0.60287  0.99934  0.18952  1.0000
  H   H1187     1.0  0.54815  0.04386  0.12428  1.0000
  H   H1188     1.0  0.94672  0.15797  0.02462  1.0000
  C   C663      1.0  0.55324  0.12426  0.26715  1.0000
  H   H1189     1.0  0.98855  0.07745  0.06577  1.0000
  C   C664      1.0  0.72709  0.25474  0.98515  1.0000
  H   H1190     1.0  0.71573  0.24120  0.13028  1.0000
  H   H1191     1.0  0.76879  0.17309  0.02055  1.0000
  C   C665      1.0  0.53802  0.18828  0.33459  1.0000
  C   C666      1.0  0.98642  0.30534  0.03379  1.0000
  H   H1192     1.0  0.82058  0.17519  0.46888  1.0000
  H   H1193     1.0  0.99357  0.26624  0.01964  1.0000
  C   C667      1.0  0.95513  0.01683  0.42328  1.0000
  H   H1194     1.0  0.67415  0.18833  0.46387  1.0000
  C   C668      1.0  0.53100  0.03254  0.12157  1.0000
  H   H1195     1.0  0.90244  0.10698  0.37484  1.0000
  H   H1196     1.0  0.96500  0.02109  0.28559  1.0000
  C   C669      1.0  0.80768  0.28120  0.22334  1.0000
  H   H1197     1.0  0.51148  0.06754  0.05329  1.0000
  C   C670      1.0  0.54677  0.00057  0.27474  1.0000
  C   C671      1.0  0.83536  0.16081  0.46609  1.0000
  H   H1198     1.0  0.53573  0.04451  0.05599  1.0000
  H   H1199     1.0  0.56723  0.02800  0.19402  1.0000
  H   H1200     1.0  0.96438  0.12715  0.98511  1.0000
  H   H1201     1.0  0.77344  0.24008  0.99896  1.0000
  H   H1202     1.0  0.94964  0.29950  0.46502  1.0000
  H   H1203     1.0  0.90636  0.21535  0.46621  1.0000
  H   H1204     1.0  0.51672  0.22420  0.30527  1.0000
  C   C672      1.0  0.51236  0.04247  0.21357  1.0000
  C   C673      1.0  0.52551  0.05898  0.07008  1.0000
  H   H1205     1.0  0.51053  0.06183  0.26059  1.0000
  H   H1206     1.0  0.99021  0.02711  0.40254  1.0000
  H   H1207     1.0  0.84144  0.31386  0.37564  1.0000
  C   C674      1.0  0.56863  0.00424  0.40744  1.0000
  C   C675      1.0  0.59164  0.01145  0.38735  1.0000
  H   H1208     1.0  0.99516  0.04501  0.06208  1.0000
  C   C676      1.0  0.72246  0.20569  0.46317  1.0000
  H   H1209     1.0  0.50710  0.06058  0.16734  1.0000
  H   H1210     1.0  0.51024  0.00135  0.38013  1.0000
  H   H1211     1.0  0.00366  0.18003  0.02409  1.0000
  H   H1212     1.0  0.72908  0.19200  0.44469  1.0000
  C   C677      1.0  0.66558  0.20539  0.45348  1.0000
  S   S154      1.0  0.88001  0.25737  0.98271  1.0000
  Fe  Fe76      1.0  0.83790  0.25699  0.98315  1.0000
  C   C678      1.0  0.00183  0.02313  0.30709  1.0000
  H   H1213     1.0  0.66260  0.21774  0.47519  1.0000
  H   H1214     1.0  0.99992  0.99940  0.44918  1.0000
  H   H1215     1.0  0.60516  0.18092  0.45629  1.0000
  H   H1216     1.0  0.51538  0.32352  0.26271  1.0000
  C   C679      1.0  0.60535  0.33171  0.30586  1.0000
  H   H1217     1.0  0.71805  0.23653  0.98146  1.0000
  H   H1218     1.0  0.99143  0.27770  0.47937  1.0000
  H   H1219     1.0  0.57523  0.99922  0.43260  1.0000
  H   H1220     1.0  0.61973  0.20053  0.48675  1.0000
  S   S155      1.0  0.86890  0.26253  0.56701  1.0000
  H   H1221     1.0  0.97016  0.21435  0.48102  1.0000
  C   C680      1.0  0.80944  0.22878  0.83642  1.0000
  S   S156      1.0  0.82970  0.22652  0.52950  1.0000
  S   S157      1.0  0.81769  0.27072  0.93712  1.0000
  Fe  Fe77      1.0  0.82687  0.25965  0.56346  1.0000
  S   S158      1.0  0.80287  0.26717  0.61045  1.0000
  H   H1222     1.0  0.94728  0.24645  0.93540  1.0000
  H   H1223     1.0  0.98199  0.01992  0.55251  1.0000
  H   H1224     1.0  0.55438  0.24838  0.83393  1.0000
  H   H1225     1.0  0.94308  0.29330  0.62021  1.0000
  H   H1226     1.0  0.82520  0.18486  0.70761  1.0000
  S   S159      1.0  0.95314  0.11672  0.91563  1.0000
  H   H1227     1.0  0.92734  0.30774  0.58584  1.0000
  Fe  Fe78      1.0  0.65068  0.21582  0.79868  1.0000
  S   S160      1.0  0.65557  0.24351  0.75765  1.0000
  S   S161      1.0  0.61606  0.19117  0.79689  1.0000
  Fe  Fe79      1.0  0.69626  0.23562  0.83536  1.0000
  S   S162      1.0  0.70399  0.26545  0.79794  1.0000
  S   S163      1.0  0.71820  0.22349  0.88077  1.0000
  Fe  Fe80      1.0  0.66186  0.27116  0.79857  1.0000
  S   S164      1.0  0.63933  0.30685  0.79178  1.0000
  Fe  Fe81      1.0  0.69714  0.23598  0.75939  1.0000
  S   S165      1.0  0.72197  0.22502  0.71448  1.0000
  S   S166      1.0  0.65498  0.24383  0.83921  1.0000
  S   S167      1.0  0.69145  0.20576  0.79717  1.0000
  Fe  Fe82      1.0  0.54341  0.08924  0.89644  1.0000
  H   H1228     1.0  0.75666  0.20209  0.49193  1.0000
  S   S168      1.0  0.58352  0.10293  0.89191  1.0000
  H   H1229     1.0  0.77863  0.30218  0.76550  1.0000
  N   N41       1.0  0.96267  0.26369  0.51219  1.0000
  H   H1230     1.0  0.98327  0.15217  0.86087  1.0000
  H   H1231     1.0  0.55214  0.32989  0.87986  1.0000
  S   S169      1.0  0.53327  0.04865  0.89652  1.0000
  C   C681      1.0  0.78963  0.20948  0.74857  1.0000
  C   C682      1.0  0.60735  0.16793  0.82558  1.0000
  C   C683      1.0  0.58313  0.15824  0.82348  1.0000
  C   C684      1.0  0.57534  0.13910  0.84451  1.0000
  C   C685      1.0  0.59199  0.12877  0.86736  1.0000
  C   C686      1.0  0.61632  0.13840  0.86954  1.0000
  C   C687      1.0  0.62392  0.15807  0.84901  1.0000
  H   H1232     1.0  0.57056  0.16531  0.80494  1.0000
  H   H1233     1.0  0.55669  0.13187  0.84237  1.0000
  H   H1234     1.0  0.62942  0.13055  0.88709  1.0000
  H   H1235     1.0  0.64272  0.16520  0.85079  1.0000
  H   H1236     1.0  0.97054  0.02647  0.66039  1.0000
  H   H1237     1.0  0.77129  0.20662  0.73599  1.0000
  H   H1238     1.0  0.54710  0.31576  0.80118  1.0000
  H   H1239     1.0  0.62035  0.02323  0.86815  1.0000
  C   C688      1.0  0.52025  0.30444  0.83981  1.0000
  C   C689      1.0  0.53310  0.02199  0.50475  1.0000
  S   S170      1.0  0.90100  0.20123  0.53543  1.0000
  C   C690      1.0  0.60109  0.03061  0.87144  1.0000
  S   S171      1.0  0.89473  0.31998  0.52872  1.0000
  C   C691      1.0  0.95445  0.23254  0.95325  1.0000
  H   H1240     1.0  0.99834  0.23172  0.48631  1.0000
  C   C692      1.0  0.93265  0.16695  0.50680  1.0000
  Fe  Fe83      1.0  0.99030  0.09539  0.91776  1.0000
  H   H1241     1.0  0.71195  0.27672  0.92493  1.0000
  H   H1242     1.0  0.90153  0.27834  0.86296  1.0000
  C   C693      1.0  0.62284  0.32396  0.82235  1.0000
  H   H1243     1.0  0.56030  0.18779  0.74468  1.0000
  H   H1244     1.0  0.55491  0.07812  0.74109  1.0000
  H   H1245     1.0  0.53646  0.11789  0.78959  1.0000
  C   C694      1.0  0.77992  0.25509  0.63854  1.0000
  C   C695      1.0  0.77172  0.23060  0.63737  1.0000
  C   C696      1.0  0.75391  0.22196  0.66052  1.0000
  C   C697      1.0  0.74377  0.23756  0.68515  1.0000
  C   C698      1.0  0.75183  0.26209  0.68619  1.0000
  C   C699      1.0  0.76981  0.27068  0.66324  1.0000
  H   H1246     1.0  0.77921  0.21828  0.61874  1.0000
  H   H1247     1.0  0.74793  0.20296  0.65930  1.0000
  H   H1248     1.0  0.74421  0.27451  0.70463  1.0000
  H   H1249     1.0  0.77582  0.28967  0.66445  1.0000
  C   C700      1.0  0.79022  0.25719  0.92155  1.0000
  C   C701      1.0  0.78327  0.23331  0.93031  1.0000
  C   C702      1.0  0.76126  0.22311  0.91724  1.0000
  C   C703      1.0  0.74629  0.23658  0.89501  1.0000
  C   C704      1.0  0.75338  0.26039  0.88601  1.0000
  C   C705      1.0  0.77524  0.27069  0.89939  1.0000
  H   H1250     1.0  0.79487  0.22267  0.94705  1.0000
  H   H1251     1.0  0.75579  0.20469  0.92438  1.0000
  H   H1252     1.0  0.74165  0.27108  0.86949  1.0000
  H   H1253     1.0  0.78033  0.28932  0.89293  1.0000
  C   C706      1.0  0.50675  0.01843  0.79444  1.0000
  H   H1254     1.0  0.97449  0.01856  0.81928  1.0000
  C   C707      1.0  0.92176  0.15474  0.93484  1.0000
  C   C708      1.0  0.94108  0.13854  0.94462  1.0000
  H   H1255     1.0  0.83510  0.13866  0.52972  1.0000
  H   H1256     1.0  0.89881  0.32170  0.91000  1.0000
  C   C709      1.0  0.99545  0.19911  0.51663  1.0000
  H   H1257     1.0  0.91460  0.15373  0.90982  1.0000
  H   H1258     1.0  0.94818  0.02627  0.79344  1.0000
  H   H1259     1.0  0.93336  0.15862  0.53110  1.0000
  H   H1260     1.0  0.57833  0.30393  0.91395  1.0000
  H   H1261     1.0  0.91225  0.27799  0.90557  1.0000
  H   H1262     1.0  0.52988  0.16550  0.77918  1.0000
  H   H1263     1.0  0.53838  0.32889  0.95779  1.0000
  H   H1264     1.0  0.97970  0.00069  0.76375  1.0000
  N   N42       1.0  0.59436  0.06464  0.78635  1.0000
  C   C710      1.0  0.58930  0.04278  0.76419  1.0000
  C   C711      1.0  0.57001  0.07821  0.79203  1.0000
  C   C712      1.0  0.61339  0.08090  0.76977  1.0000
  C   C713      1.0  0.60462  0.05664  0.81948  1.0000
  C   C714      1.0  0.58931  0.03677  0.83796  1.0000
  C   C715      1.0  0.61174  0.02506  0.75812  1.0000
  C   C716      1.0  0.61882  0.10578  0.78731  1.0000
  H   H1265     1.0  0.94374  0.31197  0.92775  1.0000
  H   H1266     1.0  0.99044  0.10773  0.53764  1.0000
  C   C717      1.0  0.87417  0.29174  0.89891  1.0000
  H   H1267     1.0  0.52033  0.08965  0.77885  1.0000
  C   C718      1.0  0.63755  0.12105  0.76763  1.0000
  H   H1268     1.0  0.58322  0.04910  0.73927  1.0000
  H   H1269     1.0  0.57328  0.03185  0.77370  1.0000
  H   H1270     1.0  0.55545  0.06526  0.80105  1.0000
  H   H1271     1.0  0.57199  0.09205  0.81226  1.0000
  H   H1272     1.0  0.60787  0.08481  0.74370  1.0000
  H   H1273     1.0  0.63172  0.07118  0.76803  1.0000
  H   H1274     1.0  0.62423  0.04987  0.81709  1.0000
  H   H1275     1.0  0.60576  0.07274  0.83658  1.0000
  H   H1276     1.0  0.58824  0.01939  0.82356  1.0000
  H   H1277     1.0  0.57006  0.04349  0.84271  1.0000
  H   H1278     1.0  0.62687  0.03464  0.74460  1.0000
  H   H1279     1.0  0.61948  0.01776  0.78163  1.0000
  H   H1280     1.0  0.62686  0.10272  0.81231  1.0000
  H   H1281     1.0  0.60163  0.11703  0.78992  1.0000
  H   H1282     1.0  0.57121  0.10594  0.75183  1.0000
  C   C719      1.0  0.97672  0.00800  0.66914  1.0000
  H   H1283     1.0  0.97572  0.18932  0.97106  1.0000
  S   S172      1.0  0.99332  0.05287  0.49954  1.0000
  H   H1284     1.0  0.80825  0.30217  0.85009  1.0000
  H   H1285     1.0  0.75772  0.29315  0.97365  1.0000
  H   H1286     1.0  0.98154  0.23957  0.54734  1.0000
  H   H1287     1.0  0.58968  0.01648  0.88420  1.0000
  C   C720      1.0  0.52825  0.00831  0.80886  1.0000
  H   H1288     1.0  0.62989  0.12575  0.74285  1.0000
  H   H1289     1.0  0.64138  0.13857  0.78098  1.0000
  H   H1290     1.0  0.65551  0.11088  0.76470  1.0000
  C   C721      1.0  0.81038  0.32166  0.84225  1.0000
  C   C722      1.0  0.56227  0.28602  0.85135  1.0000
  H   H1291     1.0  0.95845  0.01307  0.71577  1.0000
  C   C723      1.0  0.55864  0.09141  0.76136  1.0000
  C   C724      1.0  0.54232  0.31405  0.89132  1.0000
  H   H1292     1.0  0.89665  0.18441  0.94932  1.0000
  C   C725      1.0  0.56067  0.26625  0.82355  1.0000
  H   H1293     1.0  0.79126  0.27353  0.80928  1.0000
  H   H1294     1.0  0.82555  0.22625  0.73371  1.0000
  C   C726      1.0  0.58618  0.26177  0.80760  1.0000
  N   N43       1.0  0.78619  0.22489  0.77955  1.0000
  H   H1295     1.0  0.57454  0.27793  0.87082  1.0000
  H   H1296     1.0  0.57285  0.30217  0.84207  1.0000
  C   C727      1.0  0.98486  0.28009  0.50533  1.0000
  C   C728      1.0  0.53377  0.10373  0.77005  1.0000
  H   H1297     1.0  0.68968  0.25364  0.93758  1.0000
  C   C729      1.0  0.97899  0.22141  0.94060  1.0000
  H   H1298     1.0  0.53131  0.18335  0.72269  1.0000
  H   H1299     1.0  0.80961  0.32237  0.81479  1.0000
  C   C730      1.0  0.83988  0.15855  0.52873  1.0000
  H   H1300     1.0  0.54183  0.17728  0.89651  1.0000
  C   C731      1.0  0.99050  0.20328  0.96633  1.0000
  H   H1301     1.0  0.51927  0.25885  0.86175  1.0000
  C   C732      1.0  0.54016  0.19302  0.74390  1.0000
  S   S173      1.0  0.51867  0.09790  0.94018  1.0000
  H   H1302     1.0  0.59248  0.27859  0.79449  1.0000
  H   H1303     1.0  0.60030  0.25657  0.82656  1.0000
  H   H1304     1.0  0.58497  0.24650  0.78930  1.0000
  H   H1305     1.0  0.82619  0.20873  0.67655  1.0000
  H   H1306     1.0  0.97906  0.29986  0.50687  1.0000
  H   H1307     1.0  0.82243  0.24122  0.78818  1.0000
  H   H1308     1.0  0.97444  0.21187  0.91709  1.0000
  H   H1309     1.0  0.79660  0.19072  0.75502  1.0000
  C   C733      1.0  0.77348  0.26958  0.79633  1.0000
  C   C734      1.0  0.85303  0.16461  0.49621  1.0000
  C   C735      1.0  0.75392  0.17727  0.83714  1.0000
  C   C736      1.0  0.93942  0.32299  0.94939  1.0000
  H   H1310     1.0  0.76223  0.22331  0.82307  1.0000
  H   H1311     1.0  0.79911  0.23547  0.70879  1.0000
  H   H1312     1.0  0.79605  0.24321  0.84431  1.0000
  Fe  Fe84      1.0  0.83017  0.25408  0.48769  1.0000
  H   H1313     1.0  0.75938  0.26316  0.81433  1.0000
  C   C737      1.0  0.91153  0.17215  0.95719  1.0000
  C   C738      1.0  0.94618  0.15615  0.48044  1.0000
  H   H1314     1.0  0.79194  0.25879  0.75214  1.0000
  C   C739      1.0  0.60386  0.00303  0.73701  1.0000
  H   H1315     1.0  0.53884  0.21328  0.74004  1.0000
  H   H1316     1.0  0.53893  0.26122  0.89664  1.0000
  H   H1317     1.0  0.75634  0.15713  0.84103  1.0000
  H   H1318     1.0  0.76016  0.18699  0.85988  1.0000
  Fe  Fe85      1.0  0.87157  0.23178  0.52975  1.0000
  C   C740      1.0  0.53170  0.32383  0.81615  1.0000
  C   C741      1.0  0.69682  0.27246  0.94277  1.0000
  C   C742      1.0  0.76419  0.29403  0.78184  1.0000
  H   H1319     1.0  0.91981  0.27643  0.59742  1.0000
  C   C743      1.0  0.76935  0.18544  0.80737  1.0000
  H   H1320     1.0  0.54753  0.27179  0.80366  1.0000
  H   H1321     1.0  0.87014  0.15300  0.49481  1.0000
  C   C744      1.0  0.55777  0.32616  0.94856  1.0000
  Fe  Fe86      1.0  0.86726  0.28801  0.52308  1.0000
  H   H1322     1.0  0.51366  0.19491  0.90368  1.0000
  C   C745      1.0  0.52533  0.27193  0.88140  1.0000
  H   H1323     1.0  0.97873  0.16982  0.91696  1.0000
  H   H1324     1.0  0.92768  0.26464  0.53910  1.0000
  H   H1325     1.0  0.82909  0.31471  0.90251  1.0000
  H   H1326     1.0  0.76031  0.24892  0.75404  1.0000
  H   H1327     1.0  0.74009  0.23073  0.49854  1.0000
  H   H1328     1.0  0.00328  0.18634  0.49770  1.0000
  H   H1329     1.0  0.85878  0.18419  0.49753  1.0000
  Fe  Fe87      1.0  0.50596  0.05826  0.93751  1.0000
  H   H1330     1.0  0.95719  0.13961  0.48453  1.0000
  C   C746      1.0  0.95893  0.99886  0.69599  1.0000
  H   H1331     1.0  0.99005  0.18468  0.86041  1.0000
  C   C747      1.0  0.77788  0.25030  0.76873  1.0000
  H   H1332     1.0  0.55204  0.28899  0.93292  1.0000
  H   H1333     1.0  0.85807  0.28714  0.88277  1.0000
  H   H1334     1.0  0.86920  0.28723  0.92473  1.0000
  H   H1335     1.0  0.99603  0.00962  0.67901  1.0000
  H   H1336     1.0  0.85164  0.31773  0.95197  1.0000
  H   H1337     1.0  0.98979  0.13244  0.56754  1.0000
  H   H1338     1.0  0.74130  0.25583  0.96517  1.0000
  H   H1339     1.0  0.93929  0.29413  0.52790  1.0000
  H   H1340     1.0  0.82257  0.16978  0.53158  1.0000
  H   H1341     1.0  0.95715  0.24158  0.97755  1.0000
  C   C748      1.0  0.52771  0.18572  0.77645  1.0000
  C   C749      1.0  0.91801  0.18828  0.50181  1.0000
  S   S174      1.0  0.82501  0.28718  0.52115  1.0000
  H   H1342     1.0  0.83353  0.23628  0.87846  1.0000
  H   H1343     1.0  0.88668  0.32289  0.86964  1.0000
  H   H1344     1.0  0.73376  0.18118  0.83301  1.0000
  H   H1345     1.0  0.80335  0.21128  0.84800  1.0000
  H   H1346     1.0  0.76004  0.30722  0.80221  1.0000
  H   H1347     1.0  0.79729  0.19297  0.68450  1.0000
  C   C750      1.0  0.76553  0.21327  0.79951  1.0000
  C   C751      1.0  0.83494  0.23523  0.85105  1.0000
  H   H1348     1.0  0.84904  0.22087  0.84460  1.0000
  H   H1349     1.0  0.84125  0.25343  0.84178  1.0000
  H   H1350     1.0  0.99180  0.23669  0.93476  1.0000
  H   H1351     1.0  0.76341  0.17425  0.78567  1.0000
  C   C752      1.0  0.80792  0.21980  0.72221  1.0000
  H   H1352     1.0  0.99982  0.15489  0.96991  1.0000
  C   C753      1.0  0.81452  0.20030  0.69622  1.0000
  H   H1353     1.0  0.59524  0.00920  0.71337  1.0000
  H   H1354     1.0  0.56762  0.02252  0.53233  1.0000
  S   S175      1.0  0.87220  0.25722  0.48634  1.0000
  C   C754      1.0  0.95802  0.01085  0.80612  1.0000
  C   C755      1.0  0.95000  0.13990  0.97710  1.0000
  C   C756      1.0  0.81078  0.22596  0.79809  1.0000
  C   C757      1.0  0.93515  0.29003  0.59518  1.0000
  H   H1355     1.0  0.74738  0.21494  0.78602  1.0000
  H   H1356     1.0  0.78924  0.18099  0.81251  1.0000
  H   H1357     1.0  0.82209  0.20894  0.79358  1.0000
  C   C758      1.0  0.94517  0.27568  0.53683  1.0000
  H   H1358     1.0  0.85255  0.16281  0.54979  1.0000
  H   H1359     1.0  0.74683  0.29132  0.76720  1.0000
  C   C759      1.0  0.55851  0.30638  0.92157  1.0000
  C   C760      1.0  0.95558  0.28032  0.57204  1.0000
  H   H1360     1.0  0.96322  0.26327  0.58334  1.0000
  H   H1361     1.0  0.97026  0.29466  0.57116  1.0000
  N   N44       1.0  0.53760  0.29410  0.86597  1.0000
  H   H1362     1.0  0.53051  0.17087  0.83842  1.0000
  H   H1363     1.0  0.68134  0.28590  0.93887  1.0000
  C   C761      1.0  0.89596  0.27491  0.88902  1.0000
  H   H1364     1.0  0.89022  0.25534  0.89140  1.0000
  H   H1365     1.0  0.94012  0.21796  0.95602  1.0000
  C   C762      1.0  0.99947  0.01386  0.54163  1.0000
  H   H1366     1.0  0.53480  0.01526  0.83238  1.0000
  C   C763      1.0  0.96983  0.23840  0.52478  1.0000
  H   H1367     1.0  0.64672  0.31386  0.86304  1.0000
  H   H1368     1.0  0.60171  0.04732  0.88743  1.0000
  C   C764      1.0  0.98361  0.22148  0.49962  1.0000
  C   C765      1.0  0.00153  0.12294  0.54870  1.0000
  H   H1369     1.0  0.51226  0.28946  0.82427  1.0000
  H   H1370     1.0  0.53796  0.19542  0.79649  1.0000
  H   H1371     1.0  0.50703  0.28814  0.92539  1.0000
  H   H1372     1.0  0.53775  0.20661  0.87628  1.0000
  H   H1373     1.0  0.85023  0.31961  0.84359  1.0000
  H   H1374     1.0  0.98116  0.18890  0.53102  1.0000
  C   C766      1.0  0.54949  0.01396  0.52997  1.0000
  H   H1375     1.0  0.56982  0.32046  0.96964  1.0000
  H   H1376     1.0  0.95275  0.22826  0.53278  1.0000
  C   C767      1.0  0.51560  0.17663  0.85561  1.0000
  C   C768      1.0  0.63082  0.32488  0.85530  1.0000
  S   S176      1.0  0.99581  0.05403  0.91199  1.0000
  H   H1377     1.0  0.99140  0.31629  0.96854  1.0000
  C   C769      1.0  0.52789  0.18981  0.88479  1.0000
  C   C770      1.0  0.92481  0.31292  0.97490  1.0000
  H   H1378     1.0  0.00386  0.27518  0.55399  1.0000
  H   H1379     1.0  0.91815  0.29422  0.97291  1.0000
  H   H1380     1.0  0.52580  0.11284  0.74777  1.0000
  H   H1381     1.0  0.93274  0.24696  0.48424  1.0000
  H   H1382     1.0  0.94542  0.00253  0.82480  1.0000
  C   C771      1.0  0.88124  0.31932  0.89578  1.0000
  H   H1383     1.0  0.50692  0.15957  0.86535  1.0000
  S   S177      1.0  0.51486  0.10046  0.85872  1.0000
  C   C772      1.0  0.99662  0.16644  0.86948  1.0000
  C   C773      1.0  0.99777  0.16617  0.90726  1.0000
  H   H1384     1.0  0.71196  0.19584  0.48272  1.0000
  C   C774      1.0  0.50973  0.01062  0.50220  1.0000
  H   H1385     1.0  0.52434  0.32205  0.90040  1.0000
  H   H1386     1.0  0.00333  0.14728  0.91499  1.0000
  C   C775      1.0  0.94821  0.26024  0.48034  1.0000
  C   C776      1.0  0.83545  0.33159  0.85429  1.0000
  C   C777      1.0  0.74554  0.21681  0.47960  1.0000
  C   C778      1.0  0.70647  0.27438  0.97831  1.0000
  H   H1387     1.0  0.91960  0.28923  0.47953  1.0000
  Fe  Fe88      1.0  0.98357  0.40727  0.41901  1.0000
  S   S178      1.0  0.94380  0.39276  0.42392  1.0000
  H   H1388     1.0  0.51664  0.41412  0.23853  1.0000
  H   H1389     1.0  0.99169  0.62672  0.05378  1.0000
  H   H1390     1.0  0.00205  0.52640  0.43371  1.0000
  S   S179      1.0  0.96205  0.62282  0.14483  1.0000
  Fe  Fe89      1.0  0.55068  0.61284  0.16199  1.0000
  S   S180      1.0  0.99982  0.45700  0.00519  1.0000
  S   S181      1.0  0.57119  0.64991  0.16121  1.0000
  Fe  Fe90      1.0  0.53695  0.56620  0.19997  1.0000
  H   H1391     1.0  0.90980  0.61222  0.05151  1.0000
  Fe  Fe91      1.0  0.53129  0.56590  0.12439  1.0000
  S   S182      1.0  0.53724  0.54534  0.07436  1.0000
  S   S183      1.0  0.56417  0.57346  0.15856  1.0000
  S   S184      1.0  0.52572  0.60603  0.20554  1.0000
  Fe  Fe92      1.0  0.54249  0.41155  0.38597  1.0000
  C   C779      1.0  0.52976  0.33404  0.39448  1.0000
  S   S185      1.0  0.58110  0.39537  0.37493  1.0000
  H   H1392     1.0  0.95528  0.60647  0.07318  1.0000
  H   H1393     1.0  0.95947  0.52882  0.40033  1.0000
  S   S186      1.0  0.51988  0.60627  0.12479  1.0000
  H   H1394     1.0  0.73092  0.33579  0.32289  1.0000
  C   C780      1.0  0.84465  0.35306  0.99967  1.0000
  S   S187      1.0  0.53735  0.45263  0.39311  1.0000
  C   C781      1.0  0.58937  0.37022  0.34880  1.0000
  C   C782      1.0  0.57385  0.36228  0.32305  1.0000
  H   H1395     1.0  0.59830  0.58867  0.26773  1.0000
  H   H1396     1.0  0.55596  0.37124  0.31926  1.0000
  H   H1397     1.0  0.97475  0.56505  0.41567  1.0000
  H   H1398     1.0  0.92011  0.57264  0.05927  1.0000
  H   H1399     1.0  0.98703  0.48963  0.05811  1.0000
  H   H1400     1.0  0.65767  0.62521  0.15661  1.0000
  H   H1401     1.0  0.98211  0.49273  0.27400  1.0000
  C   C783      1.0  0.99353  0.62774  0.02661  1.0000
  H   H1402     1.0  0.62517  0.36504  0.37245  1.0000
  C   C784      1.0  0.53158  0.52549  0.26812  1.0000
  S   S188      1.0  0.50519  0.44884  0.98972  1.0000
  S   S189      1.0  0.99143  0.44798  0.41403  1.0000
  H   H1403     1.0  0.64105  0.39610  0.25248  1.0000
  C   C785      1.0  0.52480  0.50045  0.31744  1.0000
  C   C786      1.0  0.53905  0.51770  0.29977  1.0000
  H   H1404     1.0  0.96195  0.49690  0.18030  1.0000
  C   C787      1.0  0.93617  0.56989  0.10738  1.0000
  H   H1405     1.0  0.53060  0.49472  0.34191  1.0000
  H   H1406     1.0  0.55594  0.52502  0.31066  1.0000
  C   C788      1.0  0.61282  0.64140  0.20125  1.0000
  H   H1407     1.0  0.92835  0.51136  0.36198  1.0000
  H   H1408     1.0  0.60514  0.65967  0.31689  1.0000
  C   C789      1.0  0.91190  0.61371  0.02423  1.0000
  H   H1409     1.0  0.60818  0.62202  0.20003  1.0000
  C   C790      1.0  0.58191  0.34327  0.30154  1.0000
  C   C791      1.0  0.99632  0.38334  0.05185  1.0000
  C   C792      1.0  0.95155  0.64642  0.11761  1.0000
  H   H1410     1.0  0.91309  0.64334  0.13290  1.0000
  H   H1411     1.0  0.97052  0.51407  0.98602  1.0000
  C   C793      1.0  0.51518  0.41894  0.26520  1.0000
  H   H1412     1.0  0.99259  0.39086  0.07696  1.0000
  H   H1413     1.0  0.87612  0.63272  0.02048  1.0000
  H   H1414     1.0  0.83800  0.33456  0.00717  1.0000
  H   H1415     1.0  0.99176  0.58660  0.30849  1.0000
  C   C794      1.0  0.63382  0.64920  0.21957  1.0000
  H   H1416     1.0  0.94902  0.38022  0.98118  1.0000
  H   H1417     1.0  0.99409  0.50040  0.38951  1.0000
  H   H1418     1.0  0.99731  0.52441  0.23449  1.0000
  C   C795      1.0  0.90792  0.36062  0.44565  1.0000
  C   C796      1.0  0.93188  0.37026  0.45151  1.0000
  H   H1419     1.0  0.00363  0.53038  0.07570  1.0000
  H   H1420     1.0  0.89767  0.36631  0.42382  1.0000
  C   C797      1.0  0.61289  0.35887  0.35284  1.0000
  H   H1421     1.0  0.58359  0.48544  0.36663  1.0000
  H   H1422     1.0  0.97634  0.55194  0.47366  1.0000
  H   H1423     1.0  0.99401  0.48555  0.47706  1.0000
  H   H1424     1.0  0.56821  0.58849  0.28758  1.0000
  H   H1425     1.0  0.98779  0.65475  0.09782  1.0000
  H   H1426     1.0  0.54482  0.34604  0.38472  1.0000
  C   C798      1.0  0.96521  0.52531  0.37436  1.0000
  C   C799      1.0  0.89680  0.34418  0.46819  1.0000
  H   H1427     1.0  0.98428  0.48135  0.13039  1.0000
  H   H1428     1.0  0.52129  0.58204  0.29109  1.0000
  H   H1429     1.0  0.50958  0.64814  0.30700  1.0000
  H   H1430     1.0  0.95461  0.56777  0.11965  1.0000
  H   H1431     1.0  0.61705  0.48446  0.37193  1.0000
  H   H1432     1.0  0.99679  0.50974  0.34802  1.0000
  H   H1433     1.0  0.94530  0.63389  0.03045  1.0000
  H   H1434     1.0  0.95022  0.48792  0.37532  1.0000
  H   H1435     1.0  0.96200  0.54211  0.35933  1.0000
  H   H1436     1.0  0.83249  0.36720  0.01154  1.0000
  H   H1437     1.0  0.60590  0.48542  0.31260  1.0000
  H   H1438     1.0  0.54374  0.62818  0.29127  1.0000
  H   H1439     1.0  0.00410  0.47541  0.18470  1.0000
  H   H1440     1.0  0.59860  0.63440  0.26945  1.0000
  C   C800      1.0  0.94816  0.50517  0.36067  1.0000
  H   H1441     1.0  0.64518  0.63568  0.23245  1.0000
  C   C801      1.0  0.52800  0.51827  0.05143  1.0000
  H   H1442     1.0  0.55175  0.52689  0.01001  1.0000
  S   S190      1.0  0.52389  0.40292  0.43430  1.0000
  C   C802      1.0  0.59806  0.65863  0.18430  1.0000
  C   C803      1.0  0.96863  0.55284  0.99903  1.0000
  C   C804      1.0  0.51455  0.47583  0.01272  1.0000
  C   C805      1.0  0.96798  0.65863  0.09642  1.0000
  C   C806      1.0  0.53839  0.51392  0.01979  1.0000
  N   N45       1.0  0.95735  0.59617  0.02144  1.0000
  H   H1443     1.0  0.59909  0.45678  0.37771  1.0000
  H   H1444     1.0  0.92350  0.36237  0.02661  1.0000
  S   S191      1.0  0.55021  0.54692  0.24673  1.0000
  Fe  Fe93      1.0  0.51600  0.44374  0.43985  1.0000
  H   H1445     1.0  0.98372  0.34748  0.06529  1.0000
  H   H1446     1.0  0.64465  0.38436  0.29390  1.0000
  H   H1447     1.0  0.92406  0.55440  0.11515  1.0000
  C   C807      1.0  0.56134  0.63890  0.29254  1.0000
  H   H1448     1.0  0.75924  0.34905  0.30681  1.0000
  C   C808      1.0  0.60065  0.47397  0.36286  1.0000
  H   H1449     1.0  0.59518  0.60041  0.30934  1.0000
  C   C809      1.0  0.67276  0.63258  0.14062  1.0000
  C   C810      1.0  0.92802  0.35126  0.00512  1.0000
  C   C811      1.0  0.99204  0.49745  0.14383  1.0000
  H   H1450     1.0  0.53190  0.33327  0.32692  1.0000
  H   H1451     1.0  0.99919  0.51074  0.12552  1.0000
  H   H1452     1.0  0.99053  0.35083  0.00226  1.0000
  C   C812      1.0  0.89587  0.63564  0.01310  1.0000
  C   C813      1.0  0.58581  0.59903  0.28487  1.0000
  H   H1453     1.0  0.93125  0.56763  0.00646  1.0000
  H   H1454     1.0  0.68875  0.61941  0.14113  1.0000
  C   C814      1.0  0.95799  0.58957  0.05786  1.0000
  H   H1455     1.0  0.55840  0.65841  0.23057  1.0000
  H   H1456     1.0  0.95281  0.50111  0.33439  1.0000
  H   H1457     1.0  0.52856  0.65407  0.24754  1.0000
  H   H1458     1.0  0.62176  0.45722  0.32382  1.0000
  H   H1459     1.0  0.98332  0.64428  0.01748  1.0000
  H   H1460     1.0  0.97698  0.54970  0.02376  1.0000
  H   H1461     1.0  0.97682  0.58254  0.06530  1.0000
  C   C815      1.0  0.60403  0.46778  0.32620  1.0000
  H   H1462     1.0  0.92728  0.58740  0.11574  1.0000
  H   H1463     1.0  0.73128  0.65442  0.18290  1.0000
  C   C816      1.0  0.98322  0.60392  0.01057  1.0000
  H   H1464     1.0  0.75837  0.65943  0.23113  1.0000
  C   C817      1.0  0.99318  0.56535  0.42813  1.0000
  C   C818      1.0  0.93975  0.61763  0.01538  1.0000
  H   H1465     1.0  0.94192  0.52314  0.00612  1.0000
  H   H1466     1.0  0.57317  0.62213  0.24534  1.0000
  H   H1467     1.0  0.94545  0.55115  0.06233  1.0000
  H   H1468     1.0  0.94052  0.47008  0.47695  1.0000
  C   C819      1.0  0.58051  0.62467  0.27081  1.0000
  C   C820      1.0  0.94986  0.57482  0.99962  1.0000
  H   H1469     1.0  0.97991  0.38761  0.03589  1.0000
  Fe  Fe94      1.0  0.00135  0.60633  0.14324  1.0000
  H   H1470     1.0  0.95575  0.51564  0.14430  1.0000
  H   H1471     1.0  0.90413  0.59708  0.01220  1.0000
  H   H1472     1.0  0.66544  0.63404  0.11494  1.0000
  N   N46       1.0  0.58234  0.44582  0.27684  1.0000
  C   C821      1.0  0.57930  0.46900  0.25652  1.0000
  C   C822      1.0  0.58154  0.45276  0.31303  1.0000
  C   C823      1.0  0.60688  0.43370  0.26778  1.0000
  C   C824      1.0  0.56153  0.42784  0.27016  1.0000
  C   C825      1.0  0.53463  0.43822  0.27443  1.0000
  C   C826      1.0  0.57613  0.46527  0.21862  1.0000
  C   C827      1.0  0.61416  0.41056  0.28832  1.0000
  C   C828      1.0  0.93899  0.56984  0.06978  1.0000
  C   C829      1.0  0.57115  0.48984  0.20122  1.0000
  C   C830      1.0  0.64022  0.40112  0.27914  1.0000
  H   H1473     1.0  0.59578  0.48117  0.25976  1.0000
  H   H1474     1.0  0.56320  0.48018  0.26556  1.0000
  H   H1475     1.0  0.56453  0.46398  0.31837  1.0000
  H   H1476     1.0  0.57958  0.43608  0.32880  1.0000
  H   H1477     1.0  0.62243  0.44721  0.26922  1.0000
  H   H1478     1.0  0.60655  0.42755  0.24150  1.0000
  H   H1479     1.0  0.56333  0.41969  0.24495  1.0000
  H   H1480     1.0  0.56298  0.41187  0.28735  1.0000
  H   H1481     1.0  0.53118  0.45456  0.25857  1.0000
  H   H1482     1.0  0.53130  0.44351  0.30060  1.0000
  H   H1483     1.0  0.59335  0.45716  0.20770  1.0000
  H   H1484     1.0  0.56018  0.45306  0.21275  1.0000
  H   H1485     1.0  0.60093  0.39536  0.28330  1.0000
  H   H1486     1.0  0.61416  0.41440  0.31528  1.0000
  H   H1487     1.0  0.65453  0.41530  0.28463  1.0000
  C   C831      1.0  0.53179  0.49296  0.00063  1.0000
  H   H1488     1.0  0.99279  0.56847  0.36492  1.0000
  H   H1489     1.0  0.55301  0.49782  0.20943  1.0000
  H   H1490     1.0  0.58628  0.50324  0.20653  1.0000
  H   H1491     1.0  0.57019  0.48693  0.17401  1.0000
  C   C832      1.0  0.95622  0.52895  0.98784  1.0000
  H   H1492     1.0  0.90238  0.65294  0.02494  1.0000
  H   H1493     1.0  0.71732  0.65520  0.12998  1.0000
  C   C833      1.0  0.50980  0.51586  0.25415  1.0000
  S   S192      1.0  0.50499  0.55645  0.16619  1.0000
  H   H1494     1.0  0.56759  0.63751  0.31878  1.0000
  H   H1495     1.0  0.98378  0.60660  0.98322  1.0000
  H   H1496     1.0  0.73708  0.33460  0.27902  1.0000
  H   H1497     1.0  0.99895  0.54158  0.31426  1.0000
  H   H1498     1.0  0.97692  0.52651  0.17570  1.0000
  C   C834      1.0  0.99283  0.51687  0.37322  1.0000
  S   S193      1.0  0.50743  0.40638  0.35627  1.0000
  H   H1499     1.0  0.93369  0.44235  0.45417  1.0000
  H   H1500     1.0  0.51773  0.40204  0.28036  1.0000
  C   C835      1.0  0.00066  0.35549  0.05384  1.0000
  C   C836      1.0  0.97038  0.50986  0.16226  1.0000
  H   H1501     1.0  0.99713  0.58913  0.01627  1.0000
  H   H1502     1.0  0.89661  0.63782  0.98578  1.0000
  H   H1503     1.0  0.94089  0.62355  0.98900  1.0000
  C   C837      1.0  0.00184  0.49697  0.27310  1.0000
  C   C838      1.0  0.51074  0.50114  0.06350  1.0000
  H   H1504     1.0  0.57008  0.33765  0.28121  1.0000
  C   C839      1.0  0.00248  0.49777  0.04484  1.0000
  C   C840      1.0  0.62076  0.33957  0.33174  1.0000
  H   H1505     1.0  0.00303  0.58239  0.42039  1.0000
  H   H1506     1.0  0.52311  0.34205  0.41826  1.0000
  H   H1507     1.0  0.68696  0.65542  0.17948  1.0000
  H   H1508     1.0  0.98417  0.55687  0.98164  1.0000
  H   H1509     1.0  0.87810  0.33745  0.46374  1.0000
  H   H1510     1.0  0.86406  0.35559  0.00883  1.0000
  C   C841      1.0  0.98856  0.56720  0.46541  1.0000
  C   C842      1.0  0.92596  0.65253  0.11644  1.0000
  H   H1511     1.0  0.97900  0.58492  0.47130  1.0000
  C   C843      1.0  0.68075  0.65786  0.15348  1.0000
  C   C844      1.0  0.50797  0.33278  0.37003  1.0000
  C   C845      1.0  0.74584  0.33363  0.30394  1.0000
  C   C846      1.0  0.94258  0.36138  0.97949  1.0000
  Fe  Fe95      1.0  0.99029  0.39245  0.92063  1.0000
  S   S194      1.0  0.96369  0.36000  0.91672  1.0000
  S   S195      1.0  0.98440  0.43355  0.91609  1.0000
  H   H1512     1.0  0.00324  0.46330  0.56608  1.0000
  C   C847      1.0  0.52406  0.62394  0.55961  1.0000
  S   S196      1.0  0.96212  0.64541  0.65691  1.0000
  Fe  Fe96      1.0  0.54547  0.60574  0.67474  1.0000
  Fe  Fe97      1.0  0.98678  0.61108  0.65155  1.0000
  S   S197      1.0  0.57283  0.63706  0.66521  1.0000
  Fe  Fe98      1.0  0.53488  0.55637  0.70824  1.0000
  S   S198      1.0  0.55474  0.53053  0.74387  1.0000
  H   H1513     1.0  0.96200  0.38384  0.54658  1.0000
  H   H1514     1.0  0.95095  0.50372  0.91049  1.0000
  S   S199      1.0  0.55254  0.56627  0.65957  1.0000
  S   S200      1.0  0.53094  0.59577  0.72460  1.0000
  Fe  Fe99      1.0  0.54861  0.39648  0.89675  1.0000
  H   H1515     1.0  0.88495  0.41174  0.91033  1.0000
  S   S201      1.0  0.58771  0.37934  0.89551  1.0000
  H   H1516     1.0  0.56859  0.45791  0.74385  1.0000
  H   H1517     1.0  0.62110  0.60830  0.66112  1.0000
  H   H1518     1.0  0.59611  0.33818  0.78713  1.0000
  H   H1519     1.0  0.95010  0.41666  0.49971  1.0000
  H   H1520     1.0  0.94978  0.63737  0.72646  1.0000
  S   S202      1.0  0.53973  0.43742  0.89931  1.0000
  C   C848      1.0  0.59914  0.35641  0.86786  1.0000
  C   C849      1.0  0.59017  0.35436  0.83544  1.0000
  H   H1521     1.0  0.98449  0.53288  0.92142  1.0000
  H   H1522     1.0  0.57485  0.36601  0.82741  1.0000
  H   H1523     1.0  0.94354  0.34161  0.52500  1.0000
  C   C850      1.0  0.54984  0.58166  0.81515  1.0000
  S   S203      1.0  0.97398  0.57181  0.65481  1.0000
  H   H1524     1.0  0.59551  0.45752  0.69362  1.0000
  C   C851      1.0  0.64178  0.41089  0.79863  1.0000
  C   C852      1.0  0.89436  0.37256  0.91259  1.0000
  H   H1525     1.0  0.91794  0.40487  0.91306  1.0000
  C   C853      1.0  0.53753  0.50792  0.76497  1.0000
  H   H1526     1.0  0.64881  0.38182  0.83491  1.0000
  H   H1527     1.0  0.60154  0.45404  0.90449  1.0000
  H   H1528     1.0  0.98366  0.48877  0.83404  1.0000
  C   C854      1.0  0.53315  0.48062  0.81258  1.0000
  C   C855      1.0  0.54621  0.49913  0.79561  1.0000
  C   C856      1.0  0.60217  0.44942  0.81795  1.0000
  H   H1529     1.0  0.60815  0.62905  0.48659  1.0000
  H   H1530     1.0  0.53982  0.47406  0.83629  1.0000
  H   H1531     1.0  0.56301  0.50680  0.80631  1.0000
  C   C857      1.0  0.58898  0.64195  0.73034  1.0000
  H   H1532     1.0  0.92269  0.38819  0.60194  1.0000
  C   C858      1.0  0.97122  0.47227  0.59642  1.0000
  H   H1533     1.0  0.52695  0.39110  0.74376  1.0000
  H   H1534     1.0  0.57615  0.62733  0.73639  1.0000
  C   C859      1.0  0.94860  0.39505  0.56122  1.0000
  C   C860      1.0  0.93359  0.34676  0.50275  1.0000
  H   H1535     1.0  0.83801  0.65533  0.64268  1.0000
  H   H1536     1.0  0.51578  0.56561  0.85823  1.0000
  C   C861      1.0  0.51575  0.49811  0.75132  1.0000
  H   H1537     1.0  0.96707  0.46633  0.52835  1.0000
  H   H1538     1.0  0.53594  0.46974  0.56037  1.0000
  H   H1539     1.0  0.50901  0.50469  0.72764  1.0000
  H   H1540     1.0  0.79464  0.33283  0.85233  1.0000
  C   C862      1.0  0.90932  0.33768  0.49730  1.0000
  S   S204      1.0  0.99493  0.54491  0.73910  1.0000
  H   H1541     1.0  0.56947  0.38742  0.76654  1.0000
  H   H1542     1.0  0.85308  0.64375  0.60544  1.0000
  C   C863      1.0  0.96168  0.41673  0.57897  1.0000
  H   H1543     1.0  0.55018  0.59239  0.83860  1.0000
  C   C864      1.0  0.94803  0.34736  0.95128  1.0000
  C   C865      1.0  0.52229  0.50637  0.57212  1.0000
  C   C866      1.0  0.62298  0.59094  0.61245  1.0000
  H   H1544     1.0  0.99129  0.47557  0.64335  1.0000
  C   C867      1.0  0.60205  0.46140  0.87883  1.0000
  H   H1545     1.0  0.88030  0.65625  0.67042  1.0000
  H   H1546     1.0  0.84409  0.52847  0.67793  1.0000
  H   H1547     1.0  0.52387  0.42203  0.75968  1.0000
  H   H1548     1.0  0.64718  0.42564  0.81622  1.0000
  C   C868      1.0  0.60325  0.65308  0.75557  1.0000
  H   H1549     1.0  0.60718  0.39851  0.82077  1.0000
  H   H1550     1.0  0.82380  0.35441  0.95438  1.0000
  H   H1551     1.0  0.62445  0.44825  0.75950  1.0000
  H   H1552     1.0  0.85460  0.37686  0.90167  1.0000
  H   H1553     1.0  0.52853  0.50571  0.59758  1.0000
  C   C869      1.0  0.63338  0.60824  0.63895  1.0000
  H   H1554     1.0  0.51187  0.59088  0.80259  1.0000
  C   C870      1.0  0.51150  0.47063  0.79869  1.0000
  H   H1555     1.0  0.95515  0.46360  0.60900  1.0000
  N   N47       1.0  0.58733  0.58753  0.56912  1.0000
  C   C871      1.0  0.59665  0.59935  0.60064  1.0000
  C   C872      1.0  0.55984  0.59341  0.56509  1.0000
  C   C873      1.0  0.58963  0.55985  0.57305  1.0000
  C   C874      1.0  0.60200  0.59528  0.53890  1.0000
  H   H1556     1.0  0.56211  0.56514  0.81755  1.0000
  N   N48       1.0  0.86181  0.33766  0.90751  1.0000
  C   C875      1.0  0.57865  0.54404  0.54447  1.0000
  H   H1557     1.0  0.51902  0.64383  0.55888  1.0000
  Fe  Fe100     1.0  0.51329  0.56646  0.63943  1.0000
  H   H1558     1.0  0.51720  0.61502  0.53656  1.0000
  H   H1559     1.0  0.94750  0.58114  0.97354  1.0000
  C   C876      1.0  0.99705  0.42077  0.53884  1.0000
  H   H1560     1.0  0.58360  0.59551  0.62130  1.0000
  C   C877      1.0  0.90509  0.61784  0.70111  1.0000
  H   H1561     1.0  0.55228  0.58477  0.54224  1.0000
  H   H1562     1.0  0.54910  0.58532  0.58606  1.0000
  H   H1563     1.0  0.58042  0.55381  0.59642  1.0000
  H   H1564     1.0  0.60962  0.55428  0.57533  1.0000
  H   H1565     1.0  0.61807  0.58247  0.53456  1.0000
  S   S205      1.0  0.50718  0.60704  0.65160  1.0000
  H   H1566     1.0  0.95604  0.61305  0.75554  1.0000
  H   H1567     1.0  0.97316  0.43740  0.48421  1.0000
  H   H1568     1.0  0.62185  0.57227  0.62368  1.0000
  C   C878      1.0  0.53292  0.40378  0.76384  1.0000
  C   C879      1.0  0.58601  0.51688  0.54807  1.0000
  H   H1569     1.0  0.55741  0.59340  0.79504  1.0000
  C   C880      1.0  0.51211  0.33386  0.79203  1.0000
  H   H1570     1.0  0.92283  0.55810  0.60161  1.0000
  H   H1571     1.0  0.98294  0.52562  0.87799  1.0000
  N   N49       1.0  0.97650  0.43407  0.55750  1.0000
  C   C881      1.0  0.55243  0.62097  0.56269  1.0000
  H   H1572     1.0  0.57943  0.50954  0.57218  1.0000
  H   H1573     1.0  0.53908  0.33968  0.83025  1.0000
  H   H1574     1.0  0.59016  0.59357  0.51631  1.0000
  H   H1575     1.0  0.60120  0.64692  0.78088  1.0000
  H   H1576     1.0  0.56484  0.34394  0.93893  1.0000
  H   H1577     1.0  0.63225  0.64700  0.50620  1.0000
  C   C882      1.0  0.99075  0.51166  0.51743  1.0000
  S   S206      1.0  0.98572  0.54424  0.56883  1.0000
  H   H1578     1.0  0.97500  0.48867  0.93461  1.0000
  H   H1579     1.0  0.61950  0.47214  0.87572  1.0000
  H   H1580     1.0  0.91023  0.36088  0.90434  1.0000
  H   H1581     1.0  0.61737  0.42771  0.85966  1.0000
  H   H1582     1.0  0.57719  0.50596  0.52794  1.0000
  H   H1583     1.0  0.89391  0.64266  0.63411  1.0000
  H   H1584     1.0  0.56055  0.62926  0.54014  1.0000
  C   C883      1.0  0.84365  0.35587  0.96206  1.0000
  H   H1585     1.0  0.85032  0.37470  0.95636  1.0000
  C   C884      1.0  0.60496  0.44123  0.75842  1.0000
  C   C885      1.0  0.57039  0.42338  0.79197  1.0000
  N   N50       1.0  0.89159  0.60235  0.67559  1.0000
  H   H1586     1.0  0.98933  0.40688  0.52150  1.0000
  C   C886      1.0  0.88137  0.58003  0.69320  1.0000
  C   C887      1.0  0.95557  0.43627  0.49871  1.0000
  C   C888      1.0  0.91003  0.59467  0.64906  1.0000
  C   C889      1.0  0.89973  0.59030  0.61355  1.0000
  C   C890      1.0  0.95951  0.44773  0.53363  1.0000
  C   C891      1.0  0.92639  0.60475  0.72067  1.0000
  C   C892      1.0  0.86594  0.56177  0.67207  1.0000
  C   C893      1.0  0.85464  0.54160  0.69370  1.0000
  C   C894      1.0  0.91903  0.57693  0.59194  1.0000
  H   H1587     1.0  0.63486  0.62737  0.62935  1.0000
  C   C895      1.0  0.60233  0.33866  0.81262  1.0000
  H   H1588     1.0  0.52407  0.54009  0.83269  1.0000
  H   H1589     1.0  0.91666  0.64788  0.55047  1.0000
  H   H1590     1.0  0.89684  0.56865  0.70364  1.0000
  H   H1591     1.0  0.86968  0.58602  0.71466  1.0000
  H   H1592     1.0  0.54010  0.49007  0.97654  1.0000
  C   C896      1.0  0.94495  0.36276  0.47982  1.0000
  H   H1593     1.0  0.92494  0.60871  0.64618  1.0000
  H   H1594     1.0  0.92015  0.57764  0.65689  1.0000
  H   H1595     1.0  0.89535  0.60821  0.60153  1.0000
  H   H1596     1.0  0.88246  0.57924  0.61333  1.0000
  C   C897      1.0  0.59122  0.64990  0.69755  1.0000
  H   H1597     1.0  0.86004  0.60774  0.64227  1.0000
  H   H1598     1.0  0.93981  0.59563  0.70363  1.0000
  H   H1599     1.0  0.91872  0.59072  0.73779  1.0000
  H   H1600     1.0  0.85028  0.57104  0.65902  1.0000
  H   H1601     1.0  0.87827  0.55243  0.65379  1.0000
  H   H1602     1.0  0.84155  0.54972  0.71214  1.0000
  C   C898      1.0  0.94095  0.62300  0.74204  1.0000
  H   H1603     1.0  0.97274  0.50220  0.63224  1.0000
  H   H1604     1.0  0.91186  0.57528  0.56622  1.0000
  H   H1605     1.0  0.92578  0.36320  0.57297  1.0000
  H   H1606     1.0  0.58811  0.46457  0.81589  1.0000
  C   C899      1.0  0.86972  0.36311  0.89693  1.0000
  H   H1607     1.0  0.93689  0.58725  0.59124  1.0000
  Fe  Fe101     1.0  0.50825  0.42769  0.86469  1.0000
  C   C900      1.0  0.61306  0.40740  0.79734  1.0000
  H   H1608     1.0  0.58511  0.48814  0.70473  1.0000
  H   H1609     1.0  0.60961  0.39347  0.77765  1.0000
  C   C901      1.0  0.93828  0.64732  0.59569  1.0000
  C   C902      1.0  0.89995  0.39895  0.90186  1.0000
  H   H1610     1.0  0.51447  0.61543  0.58104  1.0000
  C   C903      1.0  0.52316  0.57399  0.80658  1.0000
  C   C904      1.0  0.98521  0.48744  0.62240  1.0000
  H   H1611     1.0  0.55835  0.44013  0.79203  1.0000
  Fe  Fe102     1.0  0.51273  0.42802  0.94032  1.0000
  H   H1612     1.0  0.58393  0.42951  0.85890  1.0000
  H   H1613     1.0  0.51844  0.40503  0.52124  1.0000
  C   C905      1.0  0.59711  0.47236  0.71250  1.0000
  C   C906      1.0  0.94309  0.65911  0.62585  1.0000
  H   H1614     1.0  0.94083  0.45109  0.54506  1.0000
  H   H1615     1.0  0.55842  0.63139  0.58495  1.0000
  H   H1616     1.0  0.58527  0.55049  0.51998  1.0000
  S   S207      1.0  0.52351  0.45931  0.49243  1.0000
  H   H1617     1.0  0.87268  0.36362  0.86967  1.0000
  H   H1618     1.0  0.56657  0.41330  0.73889  1.0000
  C   C907      1.0  0.60121  0.44000  0.85419  1.0000
  H   H1619     1.0  0.86959  0.53117  0.70688  1.0000
  C   C908      1.0  0.00243  0.52234  0.54508  1.0000
  H   H1620     1.0  0.56571  0.41379  0.81547  1.0000
  H   H1621     1.0  0.63642  0.59001  0.59159  1.0000
  H   H1622     1.0  0.62055  0.45858  0.81448  1.0000
  H   H1623     1.0  0.82268  0.34655  0.90052  1.0000
  H   H1624     1.0  0.59993  0.63595  0.54676  1.0000
  H   H1625     1.0  0.85565  0.62031  0.68212  1.0000
  H   H1626     1.0  0.96378  0.48539  0.57770  1.0000
  H   H1627     1.0  0.95053  0.36892  0.60225  1.0000
  C   C909      1.0  0.62355  0.62846  0.50506  1.0000
  H   H1628     1.0  0.58979  0.47888  0.76381  1.0000
  H   H1629     1.0  0.58562  0.47381  0.87541  1.0000
  C   C910      1.0  0.52649  0.48596  0.55085  1.0000
  H   H1630     1.0  0.65040  0.37168  0.79227  1.0000
  H   H1631     1.0  0.87866  0.33582  0.95637  1.0000
  H   H1632     1.0  0.67539  0.38968  0.80974  1.0000
  C   C911      1.0  0.65482  0.38705  0.80954  1.0000
  H   H1633     1.0  0.60661  0.51452  0.54632  1.0000
  H   H1634     1.0  0.97181  0.51702  0.51116  1.0000
  H   H1635     1.0  0.61677  0.47879  0.71371  1.0000
  C   C912      1.0  0.56137  0.40620  0.76361  1.0000
  C   C913      1.0  0.97059  0.49698  0.91013  1.0000
  H   H1636     1.0  0.93354  0.40211  0.54483  1.0000
  H   H1637     1.0  0.97217  0.52351  0.79675  1.0000
  C   C914      1.0  0.61350  0.62156  0.53919  1.0000
  H   H1638     1.0  0.64903  0.41571  0.77373  1.0000
  N   N51       1.0  0.59769  0.43034  0.79135  1.0000
  C   C915      1.0  0.92078  0.65749  0.57330  1.0000
  C   C916      1.0  0.58852  0.46315  0.74631  1.0000
  H   H1639     1.0  0.94723  0.53139  0.96327  1.0000
  H   H1640     1.0  0.89368  0.37236  0.94002  1.0000
  H   H1641     1.0  0.60540  0.42679  0.73880  1.0000
  H   H1642     1.0  0.52400  0.56385  0.78274  1.0000
  C   C917      1.0  0.98880  0.45280  0.57999  1.0000
  H   H1643     1.0  0.83765  0.35045  0.84406  1.0000
  C   C918      1.0  0.93623  0.37786  0.58624  1.0000
  S   S208      1.0  0.52384  0.38759  0.94006  1.0000
  H   H1644     1.0  0.62939  0.62240  0.55682  1.0000
  H   H1645     1.0  0.90177  0.40004  0.87451  1.0000
  C   C919      1.0  0.61928  0.34133  0.87776  1.0000
  C   C920      1.0  0.50639  0.50745  0.50578  1.0000
  C   C921      1.0  0.86998  0.61752  0.66241  1.0000
  H   H1646     1.0  0.94654  0.42692  0.59205  1.0000
  H   H1647     1.0  0.89159  0.62547  0.71955  1.0000
  H   H1648     1.0  0.65229  0.60188  0.64665  1.0000
  H   H1649     1.0  0.97360  0.40903  0.59910  1.0000
  H   H1650     1.0  0.52104  0.34695  0.77463  1.0000
  H   H1651     1.0  0.50673  0.37825  0.49997  1.0000
  H   H1652     1.0  0.55794  0.54489  0.54476  1.0000
  S   S209      1.0  0.51940  0.38781  0.85892  1.0000
  H   H1653     1.0  0.59650  0.61976  0.59888  1.0000
  H   H1654     1.0  0.92842  0.63204  0.76038  1.0000
  H   H1655     1.0  0.94763  0.63011  0.58996  1.0000
  C   C922      1.0  0.98929  0.51328  0.79240  1.0000
  H   H1656     1.0  0.91387  0.63410  0.68908  1.0000
  H   H1657     1.0  0.00186  0.49635  0.61140  1.0000
  H   H1658     1.0  0.97222  0.48261  0.89065  1.0000
  C   C923      1.0  0.50997  0.52750  0.56041  1.0000
  H   H1659     1.0  0.52639  0.39625  0.78780  1.0000
  C   C924      1.0  0.87681  0.64349  0.64937  1.0000
  Fe  Fe103     1.0  0.00138  0.56431  0.61375  1.0000
  C   C925      1.0  0.85577  0.65465  0.62847  1.0000
  C   C926      1.0  0.51851  0.48623  0.51755  1.0000
  H   H1660     1.0  0.99895  0.44338  0.60050  1.0000
  C   C927      1.0  0.51207  0.55699  0.83366  1.0000
  C   C928      1.0  0.99583  0.49359  0.81380  1.0000
  C   C929      1.0  0.98817  0.51833  0.90270  1.0000
  C   C930      1.0  0.83654  0.33233  0.89269  1.0000
  H   H1661     1.0  0.91707  0.44879  0.49197  1.0000
  H   H1662     1.0  0.62643  0.34284  0.90274  1.0000
  H   H1663     1.0  0.96346  0.36989  0.48447  1.0000
  H   H1664     1.0  0.63798  0.61493  0.49685  1.0000
  H   H1665     1.0  0.54023  0.66289  0.75521  1.0000
  H   H1666     1.0  0.51118  0.52711  0.88463  1.0000
  C   C931      1.0  0.85981  0.33577  0.94474  1.0000
  C   C932      1.0  0.00321  0.49377  0.49819  1.0000
  C   C933      1.0  0.93546  0.45033  0.47941  1.0000
  Fe  Fe104     1.0  0.88511  0.72322  0.04215  1.0000
  S   S210      1.0  0.87925  0.75349  0.00466  1.0000
  S   S211      1.0  0.92262  0.70277  0.04118  1.0000
  Fe  Fe105     1.0  0.83552  0.73528  0.07593  1.0000
  S   S212      1.0  0.82626  0.76670  0.04160  1.0000
  S   S213      1.0  0.81298  0.72104  0.11938  1.0000
  H   H1667     1.0  0.51135  0.83429  0.19740  1.0000
  C   C934      1.0  0.98523  0.93935  0.34077  1.0000
  Fe  Fe106     1.0  0.86715  0.77656  0.04826  1.0000
  S   S214      1.0  0.88136  0.81592  0.05521  1.0000
  S   S215      1.0  0.84610  0.70891  0.03502  1.0000
  S   S216      1.0  0.87513  0.74711  0.08555  1.0000
  Fe  Fe107     1.0  0.98520  0.89028  0.15464  1.0000
  S   S217      1.0  0.96074  0.85596  0.16049  1.0000
  S   S218      1.0  0.97410  0.93023  0.16237  1.0000
  C   C935      1.0  0.67589  0.75711  0.13806  1.0000
  S   S219      1.0  0.54107  0.93672  0.18027  1.0000
  H   H1668     1.0  0.91525  0.81594  0.45844  1.0000
  H   H1669     1.0  0.57307  0.80044  0.12243  1.0000
  C   C936      1.0  0.66881  0.85354  0.29329  1.0000
  H   H1670     1.0  0.81944  0.77064  0.36256  1.0000
  Fe  Fe108     1.0  0.54672  0.89552  0.18180  1.0000
  S   S220      1.0  0.58546  0.87791  0.18668  1.0000
  S   S221      1.0  0.52631  0.89015  0.13373  1.0000
  Fe  Fe109     1.0  0.66330  0.77477  0.27899  1.0000
  S   S222      1.0  0.66915  0.73951  0.30783  1.0000
  S   S223      1.0  0.62791  0.79778  0.28787  1.0000
  Fe  Fe110     1.0  0.71056  0.76663  0.23930  1.0000
  S   S224      1.0  0.71966  0.73077  0.26431  1.0000
  S   S225      1.0  0.73212  0.78445  0.19740  1.0000
  Fe  Fe111     1.0  0.67864  0.72240  0.25859  1.0000
  S   S226      1.0  0.66693  0.68317  0.24453  1.0000
  Fe  Fe112     1.0  0.70986  0.75034  0.31211  1.0000
  S   S227      1.0  0.73259  0.73918  0.35877  1.0000
  S   S228      1.0  0.67033  0.75682  0.22975  1.0000
  S   S229      1.0  0.70311  0.78711  0.28706  1.0000
  C   C937      1.0  0.56847  0.83865  0.11103  1.0000
  H   H1671     1.0  0.92293  0.71834  0.13653  1.0000
  H   H1672     1.0  0.95780  0.76335  0.44545  1.0000
  H   H1673     1.0  0.75647  0.67524  0.17384  1.0000
  H   H1674     1.0  0.67011  0.75626  0.11167  1.0000
  H   H1675     1.0  0.68145  0.77635  0.14394  1.0000
  C   C938      1.0  0.73373  0.70016  0.12113  1.0000
  N   N52       1.0  0.55650  0.66546  0.28322  1.0000
  S   S230      1.0  0.52856  0.95714  0.09080  1.0000
  C   C939      1.0  0.53625  0.96892  0.44423  1.0000
  H   H1676     1.0  0.54286  0.96858  0.24313  1.0000
  C   C940      1.0  0.59583  0.85440  0.21399  1.0000
  C   C941      1.0  0.58271  0.84837  0.24276  1.0000
  C   C942      1.0  0.59263  0.83080  0.26498  1.0000
  C   C943      1.0  0.61559  0.81892  0.25850  1.0000
  C   C944      1.0  0.62840  0.82459  0.22936  1.0000
  C   C945      1.0  0.61868  0.84243  0.20744  1.0000
  H   H1677     1.0  0.56520  0.85761  0.24824  1.0000
  H   H1678     1.0  0.58261  0.82655  0.28750  1.0000
  H   H1679     1.0  0.64608  0.81559  0.22404  1.0000
  H   H1680     1.0  0.62905  0.84707  0.18533  1.0000
  C   C946      1.0  0.78919  0.76706  0.43782  1.0000
  C   C947      1.0  0.77719  0.78385  0.41630  1.0000
  C   C948      1.0  0.76033  0.77574  0.39157  1.0000
  C   C949      1.0  0.75490  0.75062  0.38816  1.0000
  C   C950      1.0  0.76685  0.73386  0.40981  1.0000
  C   C951      1.0  0.78395  0.74193  0.43426  1.0000
  H   H1681     1.0  0.78099  0.80334  0.41870  1.0000
  H   H1682     1.0  0.75127  0.78895  0.37542  1.0000
  H   H1683     1.0  0.76285  0.71439  0.40756  1.0000
  C   C952      1.0  0.54520  0.66625  0.24905  1.0000
  C   C953      1.0  0.79105  0.73942  0.14080  1.0000
  C   C954      1.0  0.78056  0.76065  0.12672  1.0000
  C   C955      1.0  0.76246  0.77436  0.14425  1.0000
  C   C956      1.0  0.75467  0.76683  0.17583  1.0000
  C   C957      1.0  0.76523  0.74566  0.18987  1.0000
  C   C958      1.0  0.78329  0.73198  0.17238  1.0000
  H   H1684     1.0  0.78612  0.76625  0.10213  1.0000
  H   H1685     1.0  0.75433  0.79073  0.13321  1.0000
  H   H1686     1.0  0.75967  0.73993  0.21438  1.0000
  H   H1687     1.0  0.79130  0.71553  0.18337  1.0000
  C   C959      1.0  0.90529  0.82568  0.08287  1.0000
  C   C960      1.0  0.91471  0.84974  0.07998  1.0000
  C   C961      1.0  0.93240  0.85892  0.10275  1.0000
  C   C962      1.0  0.94044  0.84433  0.12927  1.0000
  C   C963      1.0  0.93124  0.82014  0.13199  1.0000
  C   C964      1.0  0.91408  0.81070  0.10864  1.0000
  H   H1688     1.0  0.90806  0.86150  0.06018  1.0000
  H   H1689     1.0  0.93921  0.87759  0.10034  1.0000
  H   H1690     1.0  0.93712  0.80881  0.15261  1.0000
  H   H1691     1.0  0.90711  0.79212  0.11114  1.0000
  C   C965      1.0  0.52256  0.95054  0.39184  1.0000
  H   H1692     1.0  0.59907  0.73653  0.23696  1.0000
  H   H1693     1.0  0.53938  0.69708  0.30785  1.0000
  H   H1694     1.0  0.97527  0.98668  0.24687  1.0000
  N   N53       1.0  0.83685  0.81333  0.16333  1.0000
  C   C966      1.0  0.84560  0.83906  0.17125  1.0000
  C   C967      1.0  0.81393  0.80795  0.18378  1.0000
  C   C968      1.0  0.85774  0.79537  0.17096  1.0000
  C   C969      1.0  0.83013  0.81078  0.12716  1.0000
  C   C970      1.0  0.81202  0.83067  0.11308  1.0000
  C   C971      1.0  0.86794  0.84845  0.15040  1.0000
  C   C972      1.0  0.85074  0.76765  0.16957  1.0000
  C   C973      1.0  0.81777  0.80762  0.22188  1.0000
  C   C974      1.0  0.79403  0.79937  0.23962  1.0000
  C   C975      1.0  0.80598  0.82566  0.07673  1.0000
  C   C976      1.0  0.87392  0.87530  0.15851  1.0000
  C   C977      1.0  0.87349  0.75128  0.17650  1.0000
  H   H1695     1.0  0.85181  0.84021  0.19749  1.0000
  H   H1696     1.0  0.82988  0.85252  0.16913  1.0000
  H   H1697     1.0  0.79902  0.82187  0.17896  1.0000
  H   H1698     1.0  0.80561  0.79008  0.17624  1.0000
  H   H1699     1.0  0.86611  0.79926  0.19565  1.0000
  H   H1700     1.0  0.87334  0.79783  0.15311  1.0000
  H   H1701     1.0  0.84722  0.81054  0.11145  1.0000
  H   H1702     1.0  0.82129  0.79264  0.12245  1.0000
  H   H1703     1.0  0.82039  0.84930  0.11444  1.0000
  H   H1704     1.0  0.79406  0.83093  0.12675  1.0000
  H   H1705     1.0  0.88492  0.83743  0.15602  1.0000
  H   H1706     1.0  0.86419  0.84731  0.12345  1.0000
  H   H1707     1.0  0.84355  0.76268  0.14474  1.0000
  H   H1708     1.0  0.83628  0.76298  0.18815  1.0000
  H   H1709     1.0  0.83301  0.79482  0.22929  1.0000
  H   H1710     1.0  0.82231  0.82636  0.23109  1.0000
  H   H1711     1.0  0.77790  0.81137  0.23284  1.0000
  H   H1712     1.0  0.78959  0.78000  0.23303  1.0000
  H   H1713     1.0  0.79678  0.80038  0.26684  1.0000
  H   H1714     1.0  0.79597  0.80789  0.07406  1.0000
  H   H1715     1.0  0.79377  0.84059  0.06691  1.0000
  H   H1716     1.0  0.82339  0.82506  0.06171  1.0000
  H   H1717     1.0  0.85777  0.88746  0.15240  1.0000
  H   H1718     1.0  0.87877  0.87738  0.18511  1.0000
  H   H1719     1.0  0.89023  0.88127  0.14358  1.0000
  H   H1720     1.0  0.88854  0.75505  0.15835  1.0000
  H   H1721     1.0  0.88064  0.75450  0.20195  1.0000
  H   H1722     1.0  0.86812  0.73158  0.17412  1.0000
  H   H1723     1.0  0.57665  0.98423  0.20845  1.0000
  C   C978      1.0  0.86967  0.78622  0.41418  1.0000
  H   H1724     1.0  0.54394  0.93078  0.28093  1.0000
  H   H1725     1.0  0.60141  0.89276  0.29691  1.0000
  C   C979      1.0  0.58442  0.92667  0.28087  1.0000
  C   C980      1.0  0.93935  0.72972  0.14342  1.0000
  H   H1726     1.0  0.53156  0.73432  0.10029  1.0000
  H   H1727     1.0  0.91525  0.85078  0.42567  1.0000
  S   S231      1.0  0.51308  0.88861  0.21351  1.0000
  H   H1728     1.0  0.59359  0.69716  0.17240  1.0000
  H   H1729     1.0  0.66723  0.84481  0.26851  1.0000
  C   C981      1.0  0.69067  0.71251  0.13843  1.0000
  H   H1730     1.0  0.53786  0.93655  0.39194  1.0000
  S   S232      1.0  0.81046  0.77866  0.46840  1.0000
  H   H1731     1.0  0.55585  0.90933  0.25063  1.0000
  H   H1732     1.0  0.93299  0.82711  0.40564  1.0000
  C   C982      1.0  0.53837  0.69239  0.23606  1.0000
  H   H1733     1.0  0.54976  0.98919  0.36518  1.0000
  H   H1734     1.0  0.98376  0.75053  0.14123  1.0000
  H   H1735     1.0  0.52975  0.95884  0.33922  1.0000
  C   C983      1.0  0.86432  0.82354  0.44703  1.0000
  H   H1736     1.0  0.89691  0.81109  0.37652  1.0000
  H   H1737     1.0  0.52907  0.70392  0.25511  1.0000
  C   C984      1.0  0.64026  0.67427  0.22129  1.0000
  H   H1738     1.0  0.86358  0.77443  0.43529  1.0000
  C   C985      1.0  0.70176  0.66890  0.13161  1.0000
  C   C986      1.0  0.91631  0.83926  0.40311  1.0000
  H   H1739     1.0  0.59232  0.67480  0.26146  1.0000
  H   H1740     1.0  0.53136  0.82128  0.14744  1.0000
  H   H1741     1.0  0.98852  0.73200  0.06354  1.0000
  N   N54       1.0  0.53123  0.97403  0.40812  1.0000
  H   H1742     1.0  0.88254  0.77461  0.39907  1.0000
  H   H1743     1.0  0.85103  0.75899  0.35953  1.0000
  C   C987      1.0  0.55742  0.95008  0.45185  1.0000
  C   C988      1.0  0.58037  0.68011  0.28293  1.0000
  C   C989      1.0  0.53420  0.98822  0.03694  1.0000
  H   H1744     1.0  0.57613  0.70002  0.27894  1.0000
  H   H1745     1.0  0.52396  0.72746  0.14262  1.0000
  C   C990      1.0  0.53361  0.98092  0.26027  1.0000
  H   H1746     1.0  0.85594  0.81151  0.46644  1.0000
  H   H1747     1.0  0.68185  0.71102  0.11354  1.0000
  C   C991      1.0  0.95878  0.67581  0.07324  1.0000
  H   H1748     1.0  0.62938  0.69449  0.29176  1.0000
  H   H1749     1.0  0.55565  0.70199  0.22812  1.0000
  C   C992      1.0  0.73875  0.67311  0.18775  1.0000
  Fe  Fe113     1.0  0.51794  0.93111  0.13405  1.0000
  H   H1750     1.0  0.98809  0.80561  0.14203  1.0000
  Fe  Fe114     1.0  0.99639  0.93647  0.11577  1.0000
  H   H1751     1.0  0.55963  0.75611  0.13855  1.0000
  C   C993      1.0  0.96176  0.76595  0.03831  1.0000
  H   H1752     1.0  0.95776  0.72473  0.09710  1.0000
  H   H1753     1.0  0.61120  0.76703  0.23056  1.0000
  C   C994      1.0  0.55448  0.98271  0.39062  1.0000
  H   H1754     1.0  0.65093  0.88081  0.32342  1.0000
  C   C995      1.0  0.94541  0.77778  0.45624  1.0000
  C   C996      1.0  0.61770  0.69708  0.31415  1.0000
  H   H1755     1.0  0.98124  0.97581  0.43214  1.0000
  H   H1756     1.0  0.95581  0.79543  0.45717  1.0000
  H   H1757     1.0  0.51660  0.70995  0.19744  1.0000
  C   C997      1.0  0.75227  0.71170  0.06550  1.0000
  H   H1758     1.0  0.70317  0.69207  0.19473  1.0000
  H   H1759     1.0  0.69400  0.66999  0.10608  1.0000
  C   C998      1.0  0.57240  0.76230  0.21543  1.0000
  H   H1760     1.0  0.93606  0.75036  0.09847  1.0000
  N   N55       1.0  0.63126  0.91451  0.27606  1.0000
  C   C999      1.0  0.63580  0.93259  0.24831  1.0000
  C   C1000     1.0  0.63688  0.92712  0.30851  1.0000
  C   C1001     1.0  0.64795  0.89227  0.27068  1.0000
  C   C1002     1.0  0.62572  0.92503  0.21372  1.0000
  C   C1003     1.0  0.64799  0.87261  0.29862  1.0000
  C   C1004     1.0  0.63498  0.94245  0.18677  1.0000
  C   C1005     1.0  0.57195  0.78483  0.19183  1.0000
  H   H1761     1.0  0.65621  0.93586  0.24543  1.0000
  H   H1762     1.0  0.62766  0.95103  0.25427  1.0000
  H   H1763     1.0  0.63000  0.91597  0.32972  1.0000
  H   H1764     1.0  0.66759  0.89804  0.26611  1.0000
  H   H1765     1.0  0.64241  0.88225  0.24778  1.0000
  H   H1766     1.0  0.60017  0.89569  0.25352  1.0000
  H   H1767     1.0  0.63176  0.90613  0.20679  1.0000
  H   H1768     1.0  0.60497  0.92575  0.21338  1.0000
  H   H1769     1.0  0.55188  0.83445  0.17685  1.0000
  H   H1770     1.0  0.66150  0.93521  0.36859  1.0000
  H   H1771     1.0  0.62992  0.96183  0.19273  1.0000
  H   H1772     1.0  0.65560  0.94088  0.18406  1.0000
  H   H1773     1.0  0.62621  0.93745  0.16274  1.0000
  H   H1774     1.0  0.72119  0.68747  0.07201  1.0000
  H   H1775     1.0  0.54686  0.81427  0.22987  1.0000
  H   H1776     1.0  0.97156  0.68468  0.05638  1.0000
  H   H1777     1.0  0.98971  0.81892  0.10134  1.0000
  H   H1778     1.0  0.96735  0.98747  0.01666  1.0000
  C   C1006     1.0  0.89243  0.82355  0.39772  1.0000
  H   H1779     1.0  0.93585  0.77163  0.99764  1.0000
  N   N56       1.0  0.54645  0.79501  0.18296  1.0000
  C   C1007     1.0  0.52408  0.74227  0.12368  1.0000
  C   C1008     1.0  0.98950  0.99384  0.26325  1.0000
  H   H1780     1.0  0.51189  0.78448  0.15917  1.0000
  H   H1781     1.0  0.55355  0.98233  0.03770  1.0000
  H   H1782     1.0  0.54065  0.77722  0.11428  1.0000
  H   H1783     1.0  0.54051  0.98921  0.15017  1.0000
  H   H1784     1.0  0.98676  0.79401  0.05399  1.0000
  H   H1785     1.0  0.57520  0.95520  0.43970  1.0000
  H   H1786     1.0  0.54050  0.98632  0.45756  1.0000
  C   C1009     1.0  0.92180  0.78046  0.43514  1.0000
  H   H1787     1.0  0.92735  0.78496  0.40941  1.0000
  H   H1788     1.0  0.60689  0.74663  0.19565  1.0000
  H   H1789     1.0  0.58269  0.77940  0.16952  1.0000
  C   C1010     1.0  0.99672  0.98153  0.05241  1.0000
  H   H1790     1.0  0.72831  0.71131  0.18475  1.0000
  H   H1791     1.0  0.63096  0.71064  0.20458  1.0000
  C   C1011     1.0  0.59656  0.67830  0.31473  1.0000
  H   H1792     1.0  0.51977  0.91405  0.34302  1.0000
  H   H1793     1.0  0.52977  0.78630  0.23051  1.0000
  H   H1794     1.0  0.65979  0.75219  0.15404  1.0000
  H   H1795     1.0  0.79308  0.72867  0.45025  1.0000
  H   H1796     1.0  0.75956  0.72945  0.07514  1.0000
  H   H1797     1.0  0.56548  0.76745  0.24041  1.0000
  H   H1798     1.0  0.72354  0.75400  0.44461  1.0000
  H   H1799     1.0  0.58903  0.82089  0.14988  1.0000
  H   H1800     1.0  0.92303  0.84547  0.35048  1.0000
  H   H1801     1.0  0.95969  0.79205  0.07912  1.0000
  H   H1802     1.0  0.71457  0.71955  0.08000  1.0000
  C   C1012     1.0  0.52079  0.69104  0.20635  1.0000
  C   C1013     1.0  0.71959  0.69348  0.17803  1.0000
  H   H1803     1.0  0.58332  0.79958  0.20362  1.0000
  H   H1804     1.0  0.56897  0.85685  0.12356  1.0000
  H   H1805     1.0  0.74331  0.71674  0.13103  1.0000
  H   H1806     1.0  0.74825  0.71398  0.03868  1.0000
  N   N57       1.0  0.88304  0.80885  0.42692  1.0000
  H   H1807     1.0  0.66391  0.66989  0.15337  1.0000
  H   H1808     1.0  0.69034  0.75196  0.45061  1.0000
  H   H1809     1.0  0.96301  0.77485  0.13172  1.0000
  H   H1810     1.0  0.74807  0.68523  0.12228  1.0000
  C   C1014     1.0  0.53007  0.77601  0.16653  1.0000
  S   S233      1.0  0.97931  0.95978  0.07499  1.0000
  H   H1811     1.0  0.62996  0.86260  0.29889  1.0000
  C   C1015     1.0  0.60448  0.90611  0.27646  1.0000
  H   H1812     1.0  0.68806  0.95110  0.35172  1.0000
  H   H1813     1.0  0.89706  0.67466  0.09302  1.0000
  H   H1814     1.0  0.56095  0.74700  0.20548  1.0000
  C   C1016     1.0  0.60469  0.68370  0.18574  1.0000
  C   C1017     1.0  0.99453  0.99054  0.42531  1.0000
  H   H1815     1.0  0.95336  0.79874  0.00883  1.0000
  H   H1816     1.0  0.95304  0.71768  0.15650  1.0000
  H   H1817     1.0  0.55068  0.83693  0.09702  1.0000
  C   C1018     1.0  0.59903  0.75255  0.21985  1.0000
  H   H1818     1.0  0.65731  0.96454  0.34777  1.0000
  H   H1819     1.0  0.83687  0.86312  0.47214  1.0000
  C   C1019     1.0  0.55819  0.91620  0.27635  1.0000
  H   H1820     1.0  0.58674  0.94175  0.26265  1.0000
  C   C1020     1.0  0.66475  0.93340  0.31477  1.0000
  H   H1821     1.0  0.83267  0.75332  0.39634  1.0000
  C   C1021     1.0  0.97437  0.78060  0.06681  1.0000
  H   H1822     1.0  0.97087  0.92467  0.34136  1.0000
  C   C1022     1.0  0.97239  0.75847  0.12071  1.0000
  H   H1823     1.0  0.98833  0.98644  0.14279  1.0000
  H   H1824     1.0  0.55483  0.90083  0.29391  1.0000
  C   C1023     1.0  0.62568  0.69147  0.20410  1.0000
  Fe  Fe115     1.0  0.83898  0.74111  0.00048  1.0000
  H   H1825     1.0  0.58425  0.83785  0.09321  1.0000
  C   C1024     1.0  0.70746  0.76185  0.45851  1.0000
  H   H1826     1.0  0.67648  0.91646  0.31573  1.0000
  C   C1025     1.0  0.58365  0.99245  0.18512  1.0000
  H   H1827     1.0  0.58545  0.93469  0.30614  1.0000
  C   C1026     1.0  0.72840  0.70449  0.08381  1.0000
  H   H1828     1.0  0.91248  0.76219  0.43495  1.0000
  H   H1829     1.0  0.62634  0.94486  0.31025  1.0000
  H   H1830     1.0  0.50719  0.94204  0.40639  1.0000
  H   H1831     1.0  0.67537  0.70866  0.15634  1.0000
  C   C1027     1.0  0.90381  0.80030  0.44956  1.0000
  H   H1832     1.0  0.52507  0.76125  0.18439  1.0000
  H   H1833     1.0  0.87877  0.86122  0.44563  1.0000
  C   C1028     1.0  0.51128  0.66849  0.30635  1.0000
  H   H1834     1.0  0.56792  0.96719  0.38697  1.0000
  H   H1835     1.0  0.58444  0.97797  0.16562  1.0000
  H   H1836     1.0  0.68746  0.86227  0.29554  1.0000
  H   H1837     1.0  0.67207  0.94552  0.29497  1.0000
  H   H1838     1.0  0.84849  0.82987  0.43130  1.0000
  H   H1839     1.0  0.93845  0.86684  0.37782  1.0000
  H   H1840     1.0  0.87734  0.83600  0.38842  1.0000
  C   C1029     1.0  0.83691  0.76698  0.37668  1.0000
  C   C1030     1.0  0.95106  0.74044  0.11216  1.0000
  C   C1031     1.0  0.57120  0.81791  0.13632  1.0000
  H   H1841     1.0  0.70531  0.78166  0.45207  1.0000
  H   H1842     1.0  0.52959  0.68040  0.18587  1.0000
  H   H1843     1.0  0.75418  0.69240  0.23045  1.0000
  C   C1032     1.0  0.66798  0.94688  0.34775  1.0000
  C   C1033     1.0  0.87402  0.84710  0.46438  1.0000
  H   H1844     1.0  0.70398  0.74247  0.17039  1.0000
  C   C1034     1.0  0.51721  0.97838  0.06004  1.0000
  H   H1845     1.0  0.89579  0.79253  0.47256  1.0000
  H   H1846     1.0  0.83081  0.79894  0.40660  1.0000
  H   H1847     1.0  0.71343  0.74565  0.12791  1.0000
  C   C1035     1.0  0.92096  0.85633  0.37370  1.0000
  H   H1848     1.0  0.93307  0.74468  0.16033  1.0000
  H   H1849     1.0  0.76696  0.69726  0.06837  1.0000
  C   C1036     1.0  0.91682  0.67027  0.09385  1.0000
  H   H1850     1.0  0.61013  0.71622  0.31431  1.0000
  C   C1037     1.0  0.54054  0.76367  0.13482  1.0000
  H   H1851     1.0  0.66740  0.83879  0.31225  1.0000
  C   C1038     1.0  0.53396  0.80267  0.21497  1.0000
  H   H1852     1.0  0.99880  0.89033  0.99009  1.0000
  H   H1853     1.0  0.97626  0.75904  0.02083  1.0000
  H   H1854     1.0  0.85077  0.80386  0.37146  1.0000
  C   C1039     1.0  0.50843  0.97734  0.26794  1.0000
  H   H1855     1.0  0.90528  0.86971  0.37087  1.0000
  C   C1040     1.0  0.93319  0.68174  0.07182  1.0000
  C   C1041     1.0  0.94368  0.78226  0.01872  1.0000
  C   C1042     1.0  0.69802  0.73978  0.14438  1.0000
  H   H1856     1.0  0.55206  0.93136  0.44342  1.0000
  C   C1043     1.0  0.84641  0.79100  0.39195  1.0000
  H   H1857     1.0  0.97332  0.95480  0.38694  1.0000
  C   C1044     1.0  0.98610  0.99242  0.02414  1.0000
  H   H1858     1.0  0.92792  0.78833  0.03471  1.0000
  H   H1859     1.0  0.94365  0.97935  0.13260  1.0000
  N   N58       1.0  0.71144  0.69375  0.14227  1.0000
  H   H1860     1.0  0.98024  0.90341  0.02311  1.0000
  H   H1861     1.0  0.72800  0.67253  0.23988  1.0000
  H   H1862     1.0  0.95116  0.74991  0.04733  1.0000
  C   C1045     1.0  0.53902  0.67655  0.30869  1.0000
  C   C1046     1.0  0.54906  0.81767  0.16130  1.0000
  N   N59       1.0  0.98901  0.76604  0.09240  1.0000
  H   H1863     1.0  0.97790  0.95495  0.32567  1.0000
  C   C1047     1.0  0.99929  0.89694  0.01612  1.0000
  H   H1864     1.0  0.62983  0.69463  0.33626  1.0000
  C   C1048     1.0  0.94940  0.99359  0.15086  1.0000
  C   C1049     1.0  0.99106  0.94792  0.37606  1.0000
  H   H1865     1.0  0.99776  0.93161  0.39007  1.0000
  H   H1866     1.0  0.58536  0.68194  0.33728  1.0000
  C   C1050     1.0  0.74514  0.67453  0.22457  1.0000
  H   H1867     1.0  0.99909  0.93764  0.44399  1.0000
  C   C1051     1.0  0.00023  0.80806  0.12006  1.0000
  C   C1052     1.0  0.50893  0.81711  0.21181  1.0000
  H   H1868     1.0  0.54546  0.67188  0.33415  1.0000
  H   H1869     1.0  0.94917  0.98517  0.17592  1.0000
  H   H1870     1.0  0.00229  0.93180  0.32861  1.0000
  Fe  Fe116     1.0  0.50557  0.92939  0.20782  1.0000
  C   C1053     1.0  0.00196  0.74412  0.07653  1.0000
  H   H1871     1.0  0.51288  0.83602  0.25930  1.0000
  H   H1872     1.0  0.53335  0.99696  0.19153  1.0000
  H   H1873     1.0  0.51923  0.96170  0.45654  1.0000
  H   H1874     1.0  0.60480  0.99562  0.38511  1.0000
  C   C1054     1.0  0.51162  0.99411  0.40587  1.0000
  C   C1055     1.0  0.51404  0.95294  0.35523  1.0000
  C   C1056     1.0  0.50472  0.92823  0.34197  1.0000
  H   H1875     1.0  0.50471  0.74882  0.11908  1.0000
  Fe  Fe117     1.0  0.86982  0.73031  0.55284  1.0000
  H   H1876     1.0  0.75109  0.81569  0.57594  1.0000
  S   S234      1.0  0.88492  0.69086  0.55283  1.0000
  Fe  Fe118     1.0  0.84102  0.77138  0.58656  1.0000
  S   S235      1.0  0.84658  0.79731  0.54406  1.0000
  S   S236      1.0  0.81991  0.78738  0.63025  1.0000
  H   H1877     1.0  0.70346  0.80003  0.62163  1.0000
  H   H1878     1.0  0.71160  0.77691  0.65180  1.0000
  Fe  Fe119     1.0  0.88606  0.78354  0.54353  1.0000
  S   S237      1.0  0.91949  0.80822  0.53284  1.0000
  S   S238      1.0  0.82853  0.74013  0.55405  1.0000
  S   S239      1.0  0.88157  0.75984  0.58866  1.0000
  C   C1057     1.0  0.61450  0.75069  0.66804  1.0000
  S   S240      1.0  0.95878  0.89035  0.63311  1.0000
  H   H1879     1.0  0.71562  0.79366  0.56217  1.0000
  Fe  Fe120     1.0  0.52206  0.93657  0.62267  1.0000
  S   S241      1.0  0.55845  0.93407  0.65098  1.0000
  Fe  Fe121     1.0  0.53499  0.93611  0.69725  1.0000
  S   S242      1.0  0.53044  0.89507  0.70254  1.0000
  H   H1880     1.0  0.74548  0.78153  0.61092  1.0000
  H   H1881     1.0  0.57691  0.93449  0.49428  1.0000
  Fe  Fe122     1.0  0.55177  0.89309  0.65490  1.0000
  S   S243      1.0  0.58387  0.86568  0.64703  1.0000
  H   H1882     1.0  0.90092  0.95027  0.76011  1.0000
  Fe  Fe123     1.0  0.66409  0.77351  0.76339  1.0000
  S   S244      1.0  0.66247  0.75044  0.80953  1.0000
  S   S245      1.0  0.63337  0.80316  0.76352  1.0000
  Fe  Fe124     1.0  0.70610  0.74103  0.73588  1.0000
  S   S246      1.0  0.70632  0.71568  0.77997  1.0000
  S   S247      1.0  0.73013  0.72815  0.69303  1.0000
  Fe  Fe125     1.0  0.66435  0.71782  0.77518  1.0000
  S   S248      1.0  0.63673  0.68628  0.78135  1.0000
  Fe  Fe126     1.0  0.70467  0.75060  0.81027  1.0000
  S   S249      1.0  0.72553  0.76096  0.85869  1.0000
  S   S250      1.0  0.66430  0.74075  0.72933  1.0000
  S   S251      1.0  0.70625  0.77617  0.76591  1.0000
  C   C1058     1.0  0.96763  0.97351  0.70983  1.0000
  H   H1883     1.0  0.79757  0.82288  0.53251  1.0000
  Fe  Fe127     1.0  0.83631  0.76541  0.51094  1.0000
  H   H1884     1.0  0.59022  0.99157  0.75071  1.0000
  H   H1885     1.0  0.95165  0.91027  0.71688  1.0000
  H   H1886     1.0  0.55571  0.98900  0.57120  1.0000
  S   S252      1.0  0.82090  0.73208  0.94949  1.0000
  C   C1059     1.0  0.60819  0.66883  0.69025  1.0000
  C   C1060     1.0  0.97167  0.76020  0.56738  1.0000
  C   C1061     1.0  0.59735  0.74117  0.83253  1.0000
  H   H1887     1.0  0.75164  0.81925  0.53172  1.0000
  C   C1062     1.0  0.59633  0.84638  0.67853  1.0000
  C   C1063     1.0  0.58431  0.84363  0.70899  1.0000
  C   C1064     1.0  0.59570  0.82985  0.73445  1.0000
  C   C1065     1.0  0.61882  0.81796  0.72943  1.0000
  C   C1066     1.0  0.63029  0.81962  0.69842  1.0000
  C   C1067     1.0  0.61912  0.83388  0.67315  1.0000
  H   H1888     1.0  0.56653  0.85266  0.71319  1.0000
  H   H1889     1.0  0.58674  0.82873  0.75838  1.0000
  H   H1890     1.0  0.64811  0.81058  0.69424  1.0000
  H   H1891     1.0  0.62843  0.83566  0.64951  1.0000
  C   C1068     1.0  0.79392  0.74024  0.92512  1.0000
  C   C1069     1.0  0.77831  0.76031  0.93277  1.0000
  C   C1070     1.0  0.75764  0.76625  0.91221  1.0000
  C   C1071     1.0  0.75196  0.75219  0.88377  1.0000
  C   C1072     1.0  0.76741  0.73196  0.87631  1.0000
  C   C1073     1.0  0.78827  0.72620  0.89662  1.0000
  H   H1892     1.0  0.00266  0.76016  0.60102  1.0000
  H   H1893     1.0  0.74591  0.78189  0.91847  1.0000
  H   H1894     1.0  0.76311  0.72050  0.85521  1.0000
  H   H1895     1.0  0.79994  0.71049  0.89050  1.0000
  C   C1074     1.0  0.79510  0.77076  0.64773  1.0000
  C   C1075     1.0  0.79055  0.74635  0.63853  1.0000
  C   C1076     1.0  0.77071  0.73345  0.65299  1.0000
  C   C1077     1.0  0.75524  0.74489  0.67658  1.0000
  C   C1078     1.0  0.75969  0.76933  0.68572  1.0000
  C   C1079     1.0  0.77970  0.78219  0.67144  1.0000
  H   H1896     1.0  0.80246  0.73734  0.62052  1.0000
  H   H1897     1.0  0.76726  0.71454  0.64581  1.0000
  H   H1898     1.0  0.74752  0.77836  0.70341  1.0000
  H   H1899     1.0  0.78313  0.80113  0.67850  1.0000
  C   C1080     1.0  0.93065  0.83030  0.56163  1.0000
  C   C1081     1.0  0.95251  0.84348  0.55429  1.0000
  C   C1082     1.0  0.96161  0.86158  0.57622  1.0000
  C   C1083     1.0  0.94875  0.86686  0.60559  1.0000
  C   C1084     1.0  0.92695  0.85362  0.61294  1.0000
  C   C1085     1.0  0.91801  0.83531  0.59120  1.0000
  H   H1900     1.0  0.96231  0.83983  0.53138  1.0000
  H   H1901     1.0  0.97824  0.87183  0.57009  1.0000
  H   H1902     1.0  0.91685  0.85759  0.63554  1.0000
  H   H1903     1.0  0.90115  0.82533  0.59714  1.0000
  C   C1086     1.0  0.90841  0.67988  0.58037  1.0000
  C   C1087     1.0  0.84072  0.73634  0.80603  1.0000
  H   H1904     1.0  0.60088  0.74834  0.64752  1.0000
  S   S253      1.0  0.87666  0.75326  0.50729  1.0000
  N   N60       1.0  0.80050  0.75289  0.77605  1.0000
  C   C1088     1.0  0.81464  0.74813  0.74427  1.0000
  C   C1089     1.0  0.78023  0.73375  0.77920  1.0000
  C   C1090     1.0  0.78784  0.77780  0.77305  1.0000
  C   C1091     1.0  0.81708  0.75313  0.80645  1.0000
  C   C1092     1.0  0.83267  0.76884  0.73322  1.0000
  C   C1093     1.0  0.77035  0.78532  0.80204  1.0000
  C   C1094     1.0  0.78906  0.70662  0.78272  1.0000
  C   C1095     1.0  0.76190  0.81149  0.55316  1.0000
  C   C1096     1.0  0.85094  0.75964  0.70679  1.0000
  C   C1097     1.0  0.76233  0.81236  0.79956  1.0000
  H   H1905     1.0  0.80128  0.74526  0.72340  1.0000
  H   H1906     1.0  0.82551  0.73070  0.74554  1.0000
  H   H1907     1.0  0.76853  0.73728  0.80141  1.0000
  H   H1908     1.0  0.76723  0.73496  0.75759  1.0000
  H   H1909     1.0  0.77662  0.77874  0.74988  1.0000
  H   H1910     1.0  0.80201  0.79266  0.77116  1.0000
  H   H1911     1.0  0.82411  0.77209  0.81150  1.0000
  H   H1912     1.0  0.80592  0.74836  0.82883  1.0000
  H   H1913     1.0  0.82178  0.78433  0.72219  1.0000
  H   H1914     1.0  0.84352  0.77619  0.75443  1.0000
  H   H1915     1.0  0.77945  0.78254  0.82647  1.0000
  H   H1916     1.0  0.75309  0.77425  0.80124  1.0000
  H   H1917     1.0  0.80187  0.70105  0.76249  1.0000
  H   H1918     1.0  0.78662  0.69593  0.50781  1.0000
  H   H1919     1.0  0.98109  0.92358  0.70568  1.0000
  H   H1920     1.0  0.84065  0.75184  0.68532  1.0000
  H   H1921     1.0  0.00152  0.90323  0.75362  1.0000
  H   H1922     1.0  0.86365  0.74532  0.71713  1.0000
  H   H1923     1.0  0.74906  0.81672  0.81994  1.0000
  H   H1924     1.0  0.77877  0.82464  0.80193  1.0000
  H   H1925     1.0  0.75277  0.81590  0.77559  1.0000
  H   H1926     1.0  0.53647  0.73027  0.76945  1.0000
  H   H1927     1.0  0.56911  0.76397  0.81130  1.0000
  H   H1928     1.0  0.78227  0.77138  0.95443  1.0000
  H   H1929     1.0  0.50984  0.80853  0.77319  1.0000
  H   H1930     1.0  0.75591  0.72866  0.49537  1.0000
  C   C1098     1.0  0.54771  0.72678  0.74688  1.0000
  H   H1931     1.0  0.83663  0.71729  0.79804  1.0000
  C   C1099     1.0  0.88650  0.92997  0.71879  1.0000
  H   H1932     1.0  0.57240  0.78490  0.74850  1.0000
  C   C1100     1.0  0.55750  0.88372  0.78854  1.0000
  C   C1101     1.0  0.70694  0.78000  0.62532  1.0000
  C   C1102     1.0  0.91394  0.69214  0.60999  1.0000
  H   H1933     1.0  0.75798  0.69132  0.53046  1.0000
  H   H1934     1.0  0.73281  0.72968  0.54905  1.0000
  C   C1103     1.0  0.53369  0.68239  0.75445  1.0000
  H   H1935     1.0  0.89311  0.91764  0.69853  1.0000
  H   H1936     1.0  0.78295  0.84527  0.55934  1.0000
  H   H1937     1.0  0.75656  0.69073  0.75812  1.0000
  C   C1104     1.0  0.58731  0.74339  0.77119  1.0000
  C   C1105     1.0  0.94425  0.97983  0.76259  1.0000
  C   C1106     1.0  0.93100  0.68167  0.63270  1.0000
  H   H1938     1.0  0.50686  0.93150  0.78218  1.0000
  H   H1939     1.0  0.93294  0.97057  0.78197  1.0000
  C   C1107     1.0  0.77453  0.70344  0.52783  1.0000
  C   C1108     1.0  0.54115  0.98895  0.79293  1.0000
  H   H1940     1.0  0.98584  0.84039  0.67465  1.0000
  H   H1941     1.0  0.91760  0.92224  0.75047  1.0000
  H   H1942     1.0  0.58910  0.74112  0.85774  1.0000
  H   H1943     1.0  0.56828  0.73711  0.69077  1.0000
  C   C1109     1.0  0.85389  0.85843  0.48668  1.0000
  H   H1944     1.0  0.86241  0.77526  0.69776  1.0000
  C   C1110     1.0  0.52823  0.80495  0.76127  1.0000
  H   H1945     1.0  0.61560  0.76237  0.71869  1.0000
  H   H1946     1.0  0.90450  0.70929  0.61587  1.0000
  H   H1947     1.0  0.61447  0.97652  0.82447  1.0000
  H   H1948     1.0  0.62840  0.76477  0.66061  1.0000
  H   H1949     1.0  0.59247  0.72195  0.71330  1.0000
  H   H1950     1.0  0.69430  0.76529  0.50836  1.0000
  H   H1951     1.0  0.54288  0.81462  0.77576  1.0000
  N   N61       1.0  0.56849  0.74533  0.74336  1.0000
  H   H1952     1.0  0.78331  0.74083  0.51475  1.0000
  H   H1953     1.0  0.93458  0.69094  0.65595  1.0000
  H   H1954     1.0  0.98552  0.88117  0.72789  1.0000
  C   C1111     1.0  0.99066  0.77403  0.58864  1.0000
  H   H1955     1.0  0.61070  0.95656  0.66714  1.0000
  C   C1112     1.0  0.58198  0.73966  0.71131  1.0000
  C   C1113     1.0  0.60119  0.75915  0.69957  1.0000
  S   S254      1.0  0.54957  0.95546  0.74325  1.0000
  C   C1114     1.0  0.85273  0.73503  0.84037  1.0000
  C   C1115     1.0  0.96929  0.91794  0.72685  1.0000
  H   H1956     1.0  0.54884  0.90226  0.78549  1.0000
  H   H1957     1.0  0.85487  0.74384  0.78875  1.0000
  C   C1116     1.0  0.90856  0.93882  0.73964  1.0000
  N   N62       1.0  0.62438  0.90374  0.75992  1.0000
  C   C1117     1.0  0.59670  0.89843  0.75959  1.0000
  C   C1118     1.0  0.63232  0.91497  0.72724  1.0000
  C   C1119     1.0  0.63800  0.87937  0.76364  1.0000
  C   C1120     1.0  0.63161  0.92006  0.78863  1.0000
  C   C1121     1.0  0.61769  0.94511  0.79136  1.0000
  C   C1122     1.0  0.58590  0.88594  0.79096  1.0000
  C   C1123     1.0  0.66700  0.88032  0.76206  1.0000
  C   C1124     1.0  0.61303  0.93162  0.70897  1.0000
  C   C1125     1.0  0.62494  0.94479  0.67959  1.0000
  H   H1958     1.0  0.59827  0.72591  0.76924  1.0000
  H   H1959     1.0  0.53437  0.72878  0.72588  1.0000
  C   C1126     1.0  0.67831  0.85434  0.76242  1.0000
  H   H1960     1.0  0.59215  0.88664  0.73794  1.0000
  H   H1961     1.0  0.58553  0.91544  0.75562  1.0000
  H   H1962     1.0  0.64987  0.92565  0.73043  1.0000
  H   H1963     1.0  0.63689  0.90018  0.70888  1.0000
  H   H1964     1.0  0.63167  0.86635  0.74405  1.0000
  H   H1965     1.0  0.63353  0.87048  0.78768  1.0000
  H   H1966     1.0  0.62944  0.91001  0.81245  1.0000
  H   H1967     1.0  0.65183  0.92461  0.78734  1.0000
  H   H1968     1.0  0.59711  0.94296  0.79109  1.0000
  H   H1969     1.0  0.62342  0.95724  0.77074  1.0000
  H   H1970     1.0  0.59348  0.86700  0.79408  1.0000
  H   H1971     1.0  0.59009  0.89686  0.81349  1.0000
  H   H1972     1.0  0.67458  0.89031  0.78383  1.0000
  H   H1973     1.0  0.67362  0.88956  0.73924  1.0000
  H   H1974     1.0  0.59762  0.92006  0.69915  1.0000
  H   H1975     1.0  0.60467  0.94577  0.72535  1.0000
  C   C1127     1.0  0.78662  0.82527  0.55566  1.0000
  H   H1976     1.0  0.55007  0.87528  0.81151  1.0000
  H   H1977     1.0  0.98793  0.82508  0.61697  1.0000
  H   H1978     1.0  0.61021  0.67503  0.66496  1.0000
  C   C1128     1.0  0.55792  0.77129  0.74107  1.0000
  C   C1129     1.0  0.76636  0.72969  0.51907  1.0000
  C   C1130     1.0  0.62005  0.67217  0.74837  1.0000
  H   H1979     1.0  0.78020  0.78054  0.52937  1.0000
  H   H1980     1.0  0.87338  0.91943  0.73459  1.0000
  H   H1981     1.0  0.67223  0.84377  0.74027  1.0000
  H   H1982     1.0  0.69904  0.85541  0.76218  1.0000
  H   H1983     1.0  0.67252  0.84421  0.78504  1.0000
  H   H1984     1.0  0.97735  0.97719  0.79489  1.0000
  H   H1985     1.0  0.72912  0.79313  0.50514  1.0000
  C   C1131     1.0  0.96442  0.94013  0.75037  1.0000
  H   H1986     1.0  0.97173  0.89073  0.76653  1.0000
  H   H1987     1.0  0.55223  0.87188  0.76722  1.0000
  H   H1988     1.0  0.64482  0.96182  0.82490  1.0000
  H   H1989     1.0  0.86111  0.87554  0.49832  1.0000
  H   H1990     1.0  0.63211  0.93114  0.66131  1.0000
  C   C1132     1.0  0.57680  0.74525  0.80679  1.0000
  H   H1991     1.0  0.70587  0.76259  0.56160  1.0000
  H   H1992     1.0  0.83969  0.72664  0.85849  1.0000
  C   C1133     1.0  0.62262  0.67984  0.71548  1.0000
  C   C1134     1.0  0.73450  0.77343  0.50779  1.0000
  H   H1993     1.0  0.96982  0.96099  0.68819  1.0000
  C   C1135     1.0  0.56237  0.94868  0.48910  1.0000
  H   H1994     1.0  0.98308  0.94589  0.75973  1.0000
  H   H1995     1.0  0.95442  0.93332  0.77267  1.0000
  H   H1996     1.0  0.93138  0.94323  0.69542  1.0000
  H   H1997     1.0  0.95874  0.77336  0.55498  1.0000
  C   C1136     1.0  0.62438  0.95846  0.82351  1.0000
  H   H1998     1.0  0.79843  0.70399  0.80699  1.0000
  H   H1999     1.0  0.60158  0.75812  0.76914  1.0000
  H   H2000     1.0  0.53413  0.77057  0.78633  1.0000
  H   H2001     1.0  0.86995  0.72350  0.83936  1.0000
  H   H2002     1.0  0.51749  0.76819  0.74806  1.0000
  C   C1137     1.0  0.92705  0.95397  0.71830  1.0000
  H   H2003     1.0  0.73186  0.75133  0.60923  1.0000
  H   H2004     1.0  0.55777  0.98119  0.80422  1.0000
  H   H2005     1.0  0.76010  0.73830  0.57062  1.0000
  N   N63       1.0  0.95082  0.96188  0.73533  1.0000
  H   H2006     1.0  0.51971  0.68412  0.73427  1.0000
  H   H2007     1.0  0.59204  0.77709  0.69398  1.0000
  H   H2008     1.0  0.56439  0.69348  0.72433  1.0000
  C   C1138     1.0  0.53255  0.97947  0.76262  1.0000
  H   H2009     1.0  0.85787  0.75375  0.84921  1.0000
  H   H2010     1.0  0.75415  0.69264  0.80290  1.0000
  H   H2011     1.0  0.64047  0.95677  0.68798  1.0000
  H   H2012     1.0  0.77387  0.66961  0.78399  1.0000
  C   C1139     1.0  0.74992  0.74115  0.54681  1.0000
  S   S255      1.0  0.51718  0.89510  0.62296  1.0000
  H   H2013     1.0  0.68965  0.76959  0.61959  1.0000
  C   C1140     1.0  0.98285  0.89705  0.74498  1.0000
  C   C1141     1.0  0.72860  0.77112  0.60359  1.0000
  C   C1142     1.0  0.72238  0.77445  0.56634  1.0000
  N   N64       1.0  0.74320  0.76806  0.54263  1.0000
  H   H2014     1.0  0.98133  0.74882  0.54834  1.0000
  H   H2015     1.0  0.63567  0.69429  0.70951  1.0000
  C   C1143     1.0  0.76624  0.78324  0.54948  1.0000
  C   C1144     1.0  0.71148  0.75859  0.49571  1.0000
  C   C1145     1.0  0.53355  0.77719  0.76049  1.0000
  H   H2016     1.0  0.60703  0.72320  0.82846  1.0000
  H   H2017     1.0  0.91638  0.97036  0.70950  1.0000
  H   H2018     1.0  0.87622  0.94589  0.70791  1.0000
  H   H2019     1.0  0.56226  0.73122  0.81139  1.0000
  H   H2020     1.0  0.55310  0.77589  0.71492  1.0000
  H   H2021     1.0  0.77602  0.77680  0.57230  1.0000
  C   C1146     1.0  0.55595  0.69929  0.74818  1.0000
  C   C1147     1.0  0.51958  0.98324  0.54925  1.0000
  H   H2022     1.0  0.61116  0.75633  0.83132  1.0000
  H   H2023     1.0  0.98688  0.97574  0.71971  1.0000
  H   H2024     1.0  0.56969  0.69606  0.76831  1.0000
  H   H2025     1.0  0.71349  0.73858  0.50060  1.0000
  H   H2026     1.0  0.62455  0.73296  0.67226  1.0000
  C   C1148     1.0  0.99954  0.82568  0.66802  1.0000
  H   H2027     1.0  0.78537  0.70322  0.55130  1.0000
  H   H2028     1.0  0.61851  0.94742  0.84529  1.0000
  H   H2029     1.0  0.79774  0.81844  0.57703  1.0000
  C   C1149     1.0  0.76698  0.68891  0.78184  1.0000
  H   H2030     1.0  0.52471  0.68682  0.77854  1.0000
  H   H2031     1.0  0.96040  0.74778  0.58324  1.0000
  C   C1150     1.0  0.96675  0.99149  0.78105  1.0000
  H   H2032     1.0  0.52771  0.81267  0.73581  1.0000
  H   H2033     1.0  0.97679  0.99520  0.64763  1.0000
  H   H2034     1.0  0.62047  0.99149  0.73104  1.0000
  H   H2035     1.0  0.75012  0.77079  0.48985  1.0000
  H   H2036     1.0  0.86074  0.67376  0.62126  1.0000
  H   H2037     1.0  0.94047  0.77218  0.48187  1.0000
  C   C1151     1.0  0.54279  0.99488  0.55213  1.0000
  H   H2038     1.0  0.98003  0.78395  0.60821  1.0000
  H   H2039     1.0  0.51366  0.80641  0.67599  1.0000
  H   H2040     1.0  0.84881  0.84541  0.50674  1.0000
  H   H2041     1.0  0.99215  0.80698  0.55978  1.0000
  Fe  Fe128     1.0  0.99788  0.90627  0.63099  1.0000
  H   H2042     1.0  0.93206  0.99494  0.75300  1.0000
  H   H2043     1.0  0.56912  0.96672  0.49853  1.0000
  H   H2044     1.0  0.54508  0.94363  0.50271  1.0000
  H   H2045     1.0  0.99121  0.80752  0.67399  1.0000
  S   S256      1.0  0.51025  0.95824  0.57556  1.0000
  C   C1152     1.0  0.51090  0.98941  0.74836  1.0000
  H   H2046     1.0  0.89051  0.84328  0.48024  1.0000
  H   H2047     1.0  0.50424  0.98236  0.72491  1.0000
  H   H2048     1.0  0.94005  0.99764  0.68481  1.0000
