data_image0
_chemical_formula_structural       FeS2FeS2FeSFeS3FeS2FeSHFeSFeS3CFeCSFeS2C2H2C6H5CHCHC2HCHC6H4C7H3C3HC2H4NC7H2C3H9CH7SCH8SHC2H2CH2CH3C2H10CH5C2H2C2HC2H2CNHC11H9SCH5CH2CH4CH2C3HCH2NH2CH4C2HCH2CH2C2H5CH7C3H7CH6CH3FeCNH10CH7CSFeS2FeS2FeSFeS3FeS2FeSHFeCFeS3C6H4C6H9C6H7C2H8C3H2CHCH2CH4C4SH4C2HC2H4NC11H31C2NHC2HCHNC2H2CH7C2HCH2CH4C4HCH4C3H5CH3CHFeCNC3HC5HCH6NH6C3H7CH10CNC3H2CH2CH3C2H8C2H2CHCH11C3H6SHCH5CH3FeS2FeS2FeSFeS3FeS2FeSCFeSFeS3HFeCSH2SH2CHC6H5C3HC2H3C6H4C7H3C3H2CH6CH3FeC2HC2HCHSH5C2H2C2H5SHC2HCHCSCHSH2C2NHCHC2HC2H2CHNC2H4CHCH2FeH7CHNHCSH7CH2CH3CNC12H31C5H7CH15C2H2SC3H4NHCH6C2HCHCHNH3FeSFeS2FeS2FeSFeS3FeS2FeS2FeCFeS3C6H4C6H4C2H3C6H7C2H4CHNC2H2CHC2H5C2HCH12CH4C2HCH2NC3H3CH2CHCH22CH6CHC3HCH2C2H4CHCHCH2C2H6NH4CH4CH9CH2CH2NC7H2C2H11CH9C2H8C4H3NC10HC2HCH3CH4CH2SHC2H3CH2CHFeS2FeS2FeCFeS4HFeSC2NCH3C6H5CH3C3H3SHFeSHFeS2FeS2FeSFeS3CH3CH2C3H2C6H4CNC12H27C2H7C2H2NHCH4C2H4CHC2H6NH2CH3C3H2CH7C2HCH4CHCH8C3H9CH6C2H3CHCH5CHCH2C2HCH2CHCH2CHFeCH3C2HCH2CH2CH2C2HC3H2C3S2HC2NC2H4CH5CHCH3CH2CFeHSFeSFeS2HFeS2FeSCFeSFeS2HCHCHC3HC4H2C6H2CHCHC4H2CFeS2FeSFeSHSFeS2FeS2FeHFeS3C4H5C6H4C3H2C5HCSCHCH8CH3C2H3NC10HCH24CH7CH10CHCH2SH2CSH2SH3CH4C2HNH4CHNHC2HCHC2H5SH9CHNC10H5CSHSH2CHCH3CH3CH3CHC2H7CH4CHCHFeS2FeS2FeSFeS4HFeSH2CH3C7H4CHCHCHC2H3SHFeSCFeS2FeS2FeSFeCS2H4CH3CH3C6H5NC12H28C2H8C2H2NH2NH2CH5CHCH7CH2CHCH4CHCHCH2CHC2HCHCHCH3CH4CHCH2SH5CH5C2HC2HCH2CH2CHCHCHCHCH2CHC3H4NC2NH4CHCHC2H5CHCHCH3C2HCH2C2H4CHCH3CFeHSHCFeS2HFeS2FeSHFeSFeS3CH4C3SC2H3C4HCH3SC2HC2H4FeS2FeSFeSH2FeS2FeS2FeCFeS3C4H3C8H3C2HCH2C4H4CH3CH3C2H2CH9CH2CH2CHC2H11NC12H35CSH3SH2C2H3CH2NCHCFeHCHNC9HSCH4CHCHCHCHCNCSCSHC2H2CH7SH3CHCSH3C2H5FeCSHCHSFeSHFeS2FeSFeS3FeS2FeS2FeSFeS3C3H4CHC3HCH3C6H4CH9CHC6H4C6H4CH8CHCH5CH7CH2CH3CHCNCHNH2C2H5C2HCHCH10CHCH7CH2CH3NC10H25NCHSH3C2H3CH2CHCHC2HC2HSH2CNSCHCHCH2CH5CH2NCHC2HC2HC5HC2H3CH2CH3NH2C2HC2H2CH3CHC3HCHCH2CH4CH4S2HCH5CH2FeH2FeS2FeS2FeSFeS3FeS2FeSHFeSFeS3HSCH5C6H4C3HC2HCH2C6H5NH2C2H3CH2NC8H13SHCH5CHFeC3H3CH5CHCH3CHCHCHCH10C2H3C7H4CH8CH2CHCHCH3CHC2HCHCHC2HC2HCH2CH7CH2NC3HC7H12CH5NH3CHCH3C2H6NH9C2H5C4NC2HCH5C2H7CH4FeHSH3SFeSHFeS2FeSFeS3FeS2FeS2FeSFeS3C4H4C5H3NC6H7C2H2CH4C6H4C6H4C2H2FeH4CH7CH11C3SH4CH7CH2C3H4C2H3C2HCHCH3C2H2C3H17C2H2SH3CH3CHCH2CHCH2C2H2C2HCHNH2CH6CHCH2C2HCHSH2C3HCHC2H2C2H2C2H10CH2CH2FeC2H4NCHCNC9SC2H10CH2C4H3CH4CH2NCH7FeS2FeS2FeSFeS3FeS2FeSHFeHFeS3FeSHCH4C6H4C6H4C6H9C2H3NC2HC2HCH3CHC2H4C2H2C2H3C2H7CHNCH2CH3CHCH6NC2SH3C3HNC10H7C2H10C3H8CH2CH3CH3C2H2NHCH5CH2CH3C2H2CH4CH2CHCH5CH4CNCHC3HS2H3CH4C2H6C4H11CH2CHNHC3H5CHCH2CHCH3CHCH7C
_chemical_formula_sum              "Fe128 S256 H2048 C1152 N64"
_cell_length_a       46.616
_cell_length_b       46.7985
_cell_length_c       38.6498
_cell_angle_alpha    89.6737
_cell_angle_beta     89.9894
_cell_angle_gamma    90.1971

_space_group_name_H-M_alt    "P 1"
_space_group_IT_number       1

loop_
  _space_group_symop_operation_xyz
  'x, y, z'

loop_
  _atom_site_type_symbol
  _atom_site_label
  _atom_site_symmetry_multiplicity
  _atom_site_fract_x
  _atom_site_fract_y
  _atom_site_fract_z
  _atom_site_occupancy
  Fe  Fe1       1.0  0.20358  0.36248  0.21965  1.0000
  S   S1        1.0  0.17288  0.33636  0.25187  1.0000
  S   S2        1.0  0.24256  0.38775  0.23849  1.0000
  Fe  Fe2       1.0  0.16932  0.35222  0.15200  1.0000
  S   S3        1.0  0.13631  0.32495  0.17884  1.0000
  S   S4        1.0  0.17155  0.36432  0.09476  1.0000
  Fe  Fe3       1.0  0.13736  0.35742  0.22162  1.0000
  S   S5        1.0  0.09815  0.37890  0.24530  1.0000
  Fe  Fe4       1.0  0.17410  0.30604  0.20700  1.0000
  S   S6        1.0  0.17736  0.25862  0.21612  1.0000
  S   S7        1.0  0.16802  0.38636  0.19272  1.0000
  S   S8        1.0  0.20715  0.33057  0.17664  1.0000
  Fe  Fe5       1.0  0.05976  0.11056  0.40377  1.0000
  S   S9        1.0  0.09106  0.08520  0.37164  1.0000
  S   S10       1.0  0.05796  0.12019  0.46163  1.0000
  Fe  Fe6       1.0  0.02361  0.12861  0.34032  1.0000
  S   S11       1.0  0.05176  0.10466  0.30353  1.0000
  H   H1        1.0  0.05083  0.15179  0.19643  1.0000
  Fe  Fe7       1.0  0.05132  0.06987  0.34386  1.0000
  S   S12       1.0  0.04601  0.02491  0.32376  1.0000
  Fe  Fe8       1.0  0.08940  0.12174  0.33345  1.0000
  S   S13       1.0  0.12562  0.14451  0.30429  1.0000
  S   S14       1.0  0.02013  0.09253  0.37849  1.0000
  S   S15       1.0  0.06115  0.14853  0.36765  1.0000
  C   C1        1.0  0.99754  0.21475  0.43508  1.0000
  Fe  Fe9       1.0  0.28181  0.11443  0.23045  1.0000
  C   C2        1.0  0.26993  0.47083  0.30767  1.0000
  S   S16       1.0  0.24601  0.09107  0.25956  1.0000
  Fe  Fe10      1.0  0.30966  0.17177  0.21850  1.0000
  S   S17       1.0  0.30566  0.21844  0.23125  1.0000
  S   S18       1.0  0.27401  0.14885  0.19132  1.0000
  C   C3        1.0  0.00709  0.26898  0.38886  1.0000
  C   C4        1.0  0.20972  0.45914  0.17243  1.0000
  H   H2        1.0  0.21998  0.23361  0.07747  1.0000
  H   H3        1.0  0.09967  0.07328  0.46436  1.0000
  C   C5        1.0  0.15870  0.12895  0.29162  1.0000
  C   C6        1.0  0.17870  0.14576  0.27330  1.0000
  C   C7        1.0  0.20544  0.13451  0.26324  1.0000
  C   C8        1.0  0.21254  0.10626  0.27154  1.0000
  C   C9        1.0  0.19256  0.08949  0.29002  1.0000
  C   C10       1.0  0.16578  0.10074  0.30002  1.0000
  H   H4        1.0  0.17343  0.16759  0.26672  1.0000
  H   H5        1.0  0.22051  0.14757  0.24892  1.0000
  H   H6        1.0  0.19783  0.06763  0.29660  1.0000
  H   H7        1.0  0.15069  0.08762  0.31431  1.0000
  H   H8        1.0  0.20877  0.19219  0.04241  1.0000
  C   C11       1.0  0.01568  0.46974  0.35710  1.0000
  H   H9        1.0  0.03445  0.45620  0.35778  1.0000
  C   C12       1.0  0.15634  0.34345  0.06130  1.0000
  H   H10       1.0  0.06339  0.27817  0.41283  1.0000
  C   C13       1.0  0.07413  0.10082  0.49626  1.0000
  C   C14       1.0  0.13506  0.32301  0.06797  1.0000
  H   H11       1.0  0.00972  0.17812  0.46668  1.0000
  C   C15       1.0  0.99947  0.18247  0.44124  1.0000
  H   H12       1.0  0.12791  0.31931  0.09425  1.0000
  C   C16       1.0  0.21275  0.24812  0.22487  1.0000
  C   C17       1.0  0.23513  0.26809  0.22501  1.0000
  C   C18       1.0  0.26365  0.25894  0.22804  1.0000
  C   C19       1.0  0.26982  0.22982  0.23113  1.0000
  C   C20       1.0  0.24732  0.21006  0.23333  1.0000
  C   C21       1.0  0.21883  0.21919  0.23024  1.0000
  H   H13       1.0  0.23063  0.29057  0.22238  1.0000
  H   H14       1.0  0.28094  0.27437  0.22709  1.0000
  H   H15       1.0  0.25186  0.18778  0.23765  1.0000
  H   H16       1.0  0.20156  0.20378  0.23142  1.0000
  C   C22       1.0  0.01773  0.34050  0.29768  1.0000
  C   C23       1.0  0.02090  0.37002  0.29344  1.0000
  C   C24       1.0  0.04568  0.38128  0.27744  1.0000
  C   C25       1.0  0.06765  0.36326  0.26565  1.0000
  C   C26       1.0  0.06465  0.33368  0.27030  1.0000
  C   C27       1.0  0.03971  0.32236  0.28605  1.0000
  C   C28       1.0  0.23399  0.23333  0.43882  1.0000
  H   H17       1.0  0.04785  0.40417  0.27419  1.0000
  H   H18       1.0  0.08163  0.31968  0.26193  1.0000
  H   H19       1.0  0.03751  0.29951  0.28939  1.0000
  C   C29       1.0  0.26863  0.37524  0.26842  1.0000
  C   C30       1.0  0.29280  0.39238  0.27548  1.0000
  C   C31       1.0  0.22919  0.46426  0.20419  1.0000
  H   H20       1.0  0.00266  0.43007  0.47453  1.0000
  C   C32       1.0  0.28715  0.33966  0.30875  1.0000
  C   C33       1.0  0.26591  0.34880  0.28522  1.0000
  H   H21       1.0  0.29520  0.41277  0.26251  1.0000
  H   H22       1.0  0.26028  0.22979  0.34829  1.0000
  H   H23       1.0  0.28485  0.31917  0.32155  1.0000
  H   H24       1.0  0.24748  0.33539  0.28000  1.0000
  N   N1        1.0  0.05509  0.20069  0.24286  1.0000
  C   C34       1.0  0.04881  0.20991  0.27940  1.0000
  C   C35       1.0  0.02752  0.20104  0.22239  1.0000
  C   C36       1.0  0.06794  0.17118  0.24409  1.0000
  C   C37       1.0  0.07623  0.22062  0.22542  1.0000
  C   C38       1.0  0.06947  0.25301  0.22799  1.0000
  C   C39       1.0  0.07532  0.21272  0.30342  1.0000
  C   C40       1.0  0.07187  0.15613  0.20877  1.0000
  H   H25       1.0  0.21278  0.28618  0.07655  1.0000
  H   H26       1.0  0.18105  0.11348  0.39552  1.0000
  C   C41       1.0  0.09180  0.27073  0.20845  1.0000
  C   C42       1.0  0.06734  0.22675  0.33763  1.0000
  C   C43       1.0  0.08718  0.12751  0.21328  1.0000
  H   H27       1.0  0.03439  0.19418  0.29246  1.0000
  H   H28       1.0  0.03676  0.23038  0.27942  1.0000
  H   H29       1.0  0.01787  0.22271  0.22283  1.0000
  H   H30       1.0  0.03178  0.19673  0.19456  1.0000
  H   H31       1.0  0.05518  0.15682  0.26125  1.0000
  H   H32       1.0  0.08956  0.17209  0.25617  1.0000
  H   H33       1.0  0.09839  0.21720  0.23544  1.0000
  H   H34       1.0  0.07773  0.21571  0.19735  1.0000
  H   H35       1.0  0.06967  0.26035  0.25523  1.0000
  C   C44       1.0  0.31007  0.13002  0.03118  1.0000
  H   H36       1.0  0.08413  0.19128  0.30946  1.0000
  H   H37       1.0  0.09257  0.22573  0.29153  1.0000
  H   H38       1.0  0.08500  0.16938  0.19089  1.0000
  H   H39       1.0  0.22480  0.41548  0.16453  1.0000
  H   H40       1.0  0.26574  0.49067  0.32242  1.0000
  H   H41       1.0  0.07652  0.40451  0.07716  1.0000
  H   H42       1.0  0.00398  0.25753  0.32231  1.0000
  S   S19       1.0  0.31571  0.13853  0.25990  1.0000
  C   C45       1.0  0.23192  0.15269  0.04127  1.0000
  H   H43       1.0  0.24665  0.20133  0.40267  1.0000
  H   H44       1.0  0.11318  0.26858  0.22089  1.0000
  H   H45       1.0  0.09331  0.26399  0.18100  1.0000
  H   H46       1.0  0.08638  0.22721  0.35490  1.0000
  H   H47       1.0  0.06017  0.24907  0.33305  1.0000
  H   H48       1.0  0.05005  0.21439  0.35076  1.0000
  H   H49       1.0  0.07423  0.11279  0.22970  1.0000
  H   H50       1.0  0.29113  0.47237  0.29466  1.0000
  S   S20       1.0  0.31405  0.09251  0.19604  1.0000
  H   H51       1.0  0.14487  0.22074  0.33799  1.0000
  C   C46       1.0  0.19788  0.25695  0.11702  1.0000
  C   C47       1.0  0.06398  0.46845  0.47551  1.0000
  H   H52       1.0  0.02460  0.25501  0.37940  1.0000
  H   H53       1.0  0.20753  0.47858  0.15618  1.0000
  C   C48       1.0  0.09407  0.07907  0.49055  1.0000
  H   H54       1.0  0.01270  0.17218  0.42091  1.0000
  H   H55       1.0  0.08461  0.45947  0.48469  1.0000
  C   C49       1.0  0.12798  0.02529  0.31949  1.0000
  H   H56       1.0  0.10602  0.29206  0.04585  1.0000
  H   H57       1.0  0.04823  0.25801  0.21665  1.0000
  H   H58       1.0  0.05471  0.30710  0.44157  1.0000
  C   C50       1.0  0.13852  0.48258  0.24466  1.0000
  C   C51       1.0  0.16078  0.23749  0.33095  1.0000
  H   H59       1.0  0.21289  0.19457  0.42445  1.0000
  H   H60       1.0  0.06378  0.42304  0.40372  1.0000
  H   H61       1.0  0.20690  0.43116  0.12784  1.0000
  H   H62       1.0  0.04706  0.45639  0.48987  1.0000
  H   H63       1.0  0.13777  0.45890  0.24249  1.0000
  H   H64       1.0  0.21429  0.24341  0.44930  1.0000
  H   H65       1.0  0.20461  0.14182  0.35014  1.0000
  H   H66       1.0  0.07719  0.47189  0.42068  1.0000
  H   H67       1.0  0.25179  0.46613  0.19517  1.0000
  H   H68       1.0  0.29946  0.21632  0.30894  1.0000
  C   C52       1.0  0.12271  0.30760  0.04050  1.0000
  H   H69       1.0  0.10925  0.03746  0.30956  1.0000
  H   H70       1.0  0.22048  0.24492  0.37329  1.0000
  H   H71       1.0  0.01282  0.03279  0.38620  1.0000
  H   H72       1.0  0.18341  0.22421  0.08176  1.0000
  H   H73       1.0  0.21210  0.15627  0.39207  1.0000
  C   C53       1.0  0.19306  0.48350  0.24538  1.0000
  C   C54       1.0  0.18276  0.18249  0.35948  1.0000
  H   H74       1.0  0.12291  0.04860  0.51413  1.0000
  H   H75       1.0  0.16287  0.14452  0.41196  1.0000
  C   C55       1.0  0.22193  0.43559  0.14948  1.0000
  C   C56       1.0  0.06126  0.46023  0.43678  1.0000
  H   H76       1.0  0.16696  0.19006  0.37899  1.0000
  C   C57       1.0  0.20321  0.22878  0.09698  1.0000
  C   C58       1.0  0.01742  0.00549  0.34199  1.0000
  H   H77       1.0  0.31008  0.22563  0.12520  1.0000
  H   H78       1.0  0.22843  0.44391  0.21899  1.0000
  C   C59       1.0  0.09934  0.40020  0.07085  1.0000
  N   N2        1.0  0.21094  0.20290  0.11853  1.0000
  H   H79       1.0  0.13797  0.48857  0.27244  1.0000
  C   C60       1.0  0.21376  0.17672  0.09587  1.0000
  C   C61       1.0  0.18663  0.19771  0.14374  1.0000
  C   C62       1.0  0.23796  0.20778  0.13914  1.0000
  C   C63       1.0  0.26557  0.21335  0.11800  1.0000
  C   C64       1.0  0.06632  0.42829  0.43156  1.0000
  C   C65       1.0  0.18786  0.16948  0.16519  1.0000
  C   C66       1.0  0.22523  0.18122  0.05845  1.0000
  C   C67       1.0  0.14876  0.25402  0.30003  1.0000
  C   C68       1.0  0.29071  0.22154  0.14122  1.0000
  C   C69       1.0  0.16047  0.16545  0.18649  1.0000
  C   C70       1.0  0.32052  0.33006  0.22139  1.0000
  H   H80       1.0  0.14569  0.02662  0.30030  1.0000
  H   H81       1.0  0.22751  0.16038  0.10890  1.0000
  H   H82       1.0  0.19245  0.16624  0.09227  1.0000
  H   H83       1.0  0.16572  0.19799  0.12973  1.0000
  H   H84       1.0  0.18553  0.21522  0.16303  1.0000
  H   H85       1.0  0.23512  0.22539  0.15796  1.0000
  H   H86       1.0  0.24256  0.18889  0.15544  1.0000
  H   H87       1.0  0.26266  0.23101  0.09921  1.0000
  H   H88       1.0  0.27191  0.19351  0.10442  1.0000
  S   S21       1.0  0.29934  0.12490  0.10107  1.0000
  C   C71       1.0  0.20941  0.22482  0.38130  1.0000
  H   H89       1.0  0.20622  0.16971  0.18344  1.0000
  H   H90       1.0  0.19005  0.15040  0.14856  1.0000
  H   H91       1.0  0.27058  0.45251  0.32608  1.0000
  H   H92       1.0  0.24495  0.19432  0.05769  1.0000
  H   H93       1.0  0.29562  0.20857  0.05115  1.0000
  C   C72       1.0  0.19515  0.15353  0.37236  1.0000
  H   H94       1.0  0.30055  0.32250  0.23418  1.0000
  H   H95       1.0  0.00423  0.38424  0.30232  1.0000
  C   C73       1.0  0.00445  0.01452  0.37259  1.0000
  H   H96       1.0  0.12814  0.26421  0.30720  1.0000
  H   H97       1.0  0.15751  0.18351  0.20467  1.0000
  H   H98       1.0  0.14145  0.16395  0.16929  1.0000
  H   H99       1.0  0.16191  0.14530  0.20172  1.0000
  C   C74       1.0  0.23120  0.19376  0.33567  1.0000
  H   H100      1.0  0.16960  0.17682  0.33653  1.0000
  H   H101      1.0  0.10458  0.37787  0.07831  1.0000
  C   C75       1.0  0.31407  0.38320  0.29897  1.0000
  C   C76       1.0  0.25516  0.21560  0.32627  1.0000
  C   C77       1.0  0.01763  0.28394  0.42235  1.0000
  H   H102      1.0  0.24812  0.25016  0.42759  1.0000
  C   C78       1.0  0.28293  0.20033  0.31657  1.0000
  H   H103      1.0  0.17840  0.25518  0.13343  1.0000
  H   H104      1.0  0.22625  0.18116  0.31195  1.0000
  N   N3        1.0  0.20387  0.20609  0.35035  1.0000
  H   H105      1.0  0.18881  0.23205  0.39277  1.0000
  H   H106      1.0  0.18809  0.21179  0.29806  1.0000
  C   C79       1.0  0.19053  0.22440  0.32230  1.0000
  H   H107      1.0  0.24874  0.22905  0.30389  1.0000
  H   H108      1.0  0.24295  0.44222  0.13846  1.0000
  H   H109      1.0  0.08840  0.42237  0.43963  1.0000
  H   H110      1.0  0.18795  0.30139  0.10688  1.0000
  C   C80       1.0  0.17182  0.13453  0.38831  1.0000
  C   C81       1.0  0.10724  0.06512  0.51885  1.0000
  H   H111      1.0  0.27924  0.18575  0.29443  1.0000
  C   C82       1.0  0.11972  0.99413  0.32661  1.0000
  H   H112      1.0  0.29126  0.18776  0.33883  1.0000
  H   H113      1.0  0.14485  0.23935  0.27802  1.0000
  C   C83       1.0  0.00361  0.18033  0.23506  1.0000
  H   H114      1.0  0.22586  0.46285  0.29540  1.0000
  H   H115      1.0  0.17500  0.27720  0.07424  1.0000
  C   C84       1.0  0.19313  0.28185  0.09200  1.0000
  C   C85       1.0  0.31130  0.35679  0.31580  1.0000
  H   H116      1.0  0.18161  0.36403  0.02161  1.0000
  H   H117      1.0  0.28579  0.24115  0.15613  1.0000
  H   H118      1.0  0.16391  0.27112  0.29175  1.0000
  H   H119      1.0  0.29315  0.11432  0.02837  1.0000
  H   H120      1.0  0.08554  0.29359  0.20886  1.0000
  C   C86       1.0  0.22631  0.21107  0.41150  1.0000
  H   H121      1.0  0.09031  0.11738  0.18765  1.0000
  H   H122      1.0  0.10858  0.13057  0.22546  1.0000
  H   H123      1.0  0.25136  0.44566  0.26767  1.0000
  H   H124      1.0  0.15416  0.13080  0.36962  1.0000
  H   H125      1.0  0.19027  0.46021  0.25084  1.0000
  H   H126      1.0  0.11307  0.41473  0.08639  1.0000
  H   H127      1.0  0.24866  0.14104  0.05610  1.0000
  C   C87       1.0  0.04801  0.29577  0.41771  1.0000
  C   C88       1.0  0.30725  0.22805  0.04247  1.0000
  C   C89       1.0  0.24443  0.49123  0.25491  1.0000
  H   H128      1.0  0.12848  0.40271  0.02808  1.0000
  H   H129      1.0  0.18825  0.45175  0.18109  1.0000
  H   H130      1.0  0.29848  0.24722  0.05550  1.0000
  H   H131      1.0  0.32520  0.06440  0.43485  1.0000
  H   H132      1.0  0.31691  0.47185  0.42455  1.0000
  H   H133      1.0  0.31584  0.33351  0.19351  1.0000
  H   H134      1.0  0.21636  0.26272  0.13366  1.0000
  C   C90       1.0  0.16521  0.34820  0.02697  1.0000
  H   H135      1.0  0.13531  0.03546  0.34385  1.0000
  H   H136      1.0  0.21234  0.13915  0.03977  1.0000
  H   H137      1.0  0.03942  0.46483  0.42692  1.0000
  H   H138      1.0  0.24108  0.17821  0.35374  1.0000
  H   H139      1.0  0.24559  0.22287  0.46053  1.0000
  H   H140      1.0  0.05053  0.41544  0.44659  1.0000
  C   C91       1.0  0.24626  0.46587  0.28103  1.0000
  H   H141      1.0  0.16255  0.25278  0.35267  1.0000
  H   H142      1.0  0.20475  0.24272  0.31543  1.0000
  H   H143      1.0  0.29568  0.20379  0.15935  1.0000
  Fe  Fe11      1.0  0.30903  0.12971  0.15896  1.0000
  C   C92       1.0  0.31817  0.13891  0.06455  1.0000
  N   N4        1.0  0.22148  0.48891  0.22738  1.0000
  H   H144      1.0  0.04875  0.31121  0.39574  1.0000
  H   H145      1.0  0.01975  0.22323  0.43636  1.0000
  H   H146      1.0  0.01127  0.15796  0.23684  1.0000
  H   H147      1.0  0.00547  0.28674  0.36963  1.0000
  H   H148      1.0  0.01763  0.26943  0.44503  1.0000
  H   H149      1.0  0.16461  0.48873  0.19953  1.0000
  H   H150      1.0  0.99939  0.21177  0.38023  1.0000
  H   H151      1.0  0.12030  0.48649  0.46820  1.0000
  H   H152      1.0  0.31697  0.45057  0.38547  1.0000
  H   H153      1.0  0.09913  0.42751  0.02576  1.0000
  C   C93       1.0  0.10503  0.40518  0.03233  1.0000
  H   H154      1.0  0.10301  0.99416  0.34708  1.0000
  H   H155      1.0  0.00347  0.30233  0.42842  1.0000
  H   H156      1.0  0.11913  0.49144  0.23188  1.0000
  H   H157      1.0  0.99569  0.18689  0.26084  1.0000
  H   H158      1.0  0.06711  0.37984  0.02167  1.0000
  H   H159      1.0  0.08980  0.99195  0.28395  1.0000
  H   H160      1.0  0.16016  0.33635  0.97329  1.0000
  C   C94       1.0  0.30030  0.26945  0.75301  1.0000
  S   S22       1.0  0.26709  0.16979  0.83448  1.0000
  Fe  Fe12      1.0  0.17093  0.29747  0.85938  1.0000
  S   S23       1.0  0.14591  0.26258  0.88581  1.0000
  S   S24       1.0  0.21864  0.29477  0.85154  1.0000
  Fe  Fe13      1.0  0.11996  0.33669  0.85049  1.0000
  S   S25       1.0  0.09083  0.30437  0.87596  1.0000
  S   S26       1.0  0.09744  0.37831  0.83603  1.0000
  Fe  Fe14      1.0  0.12580  0.29858  0.91537  1.0000
  S   S27       1.0  0.11440  0.29351  0.97238  1.0000
  Fe  Fe15      1.0  0.11330  0.27104  0.84419  1.0000
  S   S28       1.0  0.08573  0.23647  0.81898  1.0000
  S   S29       1.0  0.15344  0.33299  0.89219  1.0000
  S   S30       1.0  0.13979  0.30386  0.81551  1.0000
  Fe  Fe16      1.0  0.11517  0.09089  0.71449  1.0000
  S   S31       1.0  0.14415  0.06125  0.68485  1.0000
  S   S32       1.0  0.13762  0.13041  0.73651  1.0000
  Fe  Fe17      1.0  0.06447  0.05173  0.70246  1.0000
  S   S33       1.0  0.08936  0.01945  0.67233  1.0000
  H   H161      1.0  0.24825  0.31532  0.79169  1.0000
  Fe  Fe18      1.0  0.12262  0.02521  0.71379  1.0000
  C   C95       1.0  0.30963  0.29623  0.64324  1.0000
  Fe  Fe19      1.0  0.10855  0.05791  0.64562  1.0000
  S   S34       1.0  0.11846  0.05482  0.58780  1.0000
  S   S35       1.0  0.09614  0.05496  0.74627  1.0000
  S   S36       1.0  0.08112  0.09006  0.67306  1.0000
  C   C96       1.0  0.11109  0.40727  0.81102  1.0000
  C   C97       1.0  0.09327  0.43088  0.80447  1.0000
  C   C98       1.0  0.10319  0.45443  0.78486  1.0000
  C   C99       1.0  0.13115  0.45465  0.77169  1.0000
  C   C100      1.0  0.14890  0.43092  0.77805  1.0000
  C   C101      1.0  0.13892  0.40729  0.79751  1.0000
  H   H162      1.0  0.07162  0.43103  0.81456  1.0000
  H   H163      1.0  0.25263  0.28137  0.95273  1.0000
  H   H164      1.0  0.17047  0.43082  0.76775  1.0000
  H   H165      1.0  0.15275  0.38915  0.80208  1.0000
  C   C102      1.0  0.10087  0.20661  0.79741  1.0000
  C   C103      1.0  0.08297  0.18369  0.78796  1.0000
  C   C104      1.0  0.09376  0.16022  0.76932  1.0000
  C   C105      1.0  0.12278  0.15933  0.76014  1.0000
  C   C106      1.0  0.14083  0.18200  0.77020  1.0000
  C   C107      1.0  0.12998  0.20552  0.78870  1.0000
  H   H166      1.0  0.06068  0.18405  0.79526  1.0000
  H   H167      1.0  0.07968  0.14285  0.76202  1.0000
  H   H168      1.0  0.16333  0.18151  0.76343  1.0000
  H   H169      1.0  0.14408  0.22291  0.79589  1.0000
  H   H170      1.0  0.14898  0.41731  0.88050  1.0000
  H   H171      1.0  0.07488  0.42438  0.72453  1.0000
  H   H172      1.0  0.20590  0.03886  0.68256  1.0000
  H   H173      1.0  0.09950  0.36255  0.01262  1.0000
  H   H174      1.0  0.24872  0.47502  0.82237  1.0000
  C   C108      1.0  0.25348  0.20471  0.83604  1.0000
  C   C109      1.0  0.27203  0.22817  0.83751  1.0000
  C   C110      1.0  0.26112  0.25573  0.84221  1.0000
  C   C111      1.0  0.23149  0.26011  0.84423  1.0000
  C   C112      1.0  0.21279  0.23685  0.84083  1.0000
  C   C113      1.0  0.22379  0.20914  0.83690  1.0000
  H   H175      1.0  0.29484  0.22513  0.83531  1.0000
  H   H176      1.0  0.27570  0.27361  0.84474  1.0000
  H   H177      1.0  0.18987  0.24008  0.84143  1.0000
  H   H178      1.0  0.20926  0.19111  0.83512  1.0000
  H   H179      1.0  0.00027  0.00177  0.79372  1.0000
  H   H180      1.0  0.17507  0.27692  0.96749  1.0000
  H   H181      1.0  0.03754  0.36354  0.86817  1.0000
  C   C114      1.0  0.08014  0.09388  0.55887  1.0000
  C   C115      1.0  0.10046  0.07248  0.55316  1.0000
  H   H182      1.0  0.03363  0.99851  0.63098  1.0000
  H   H183      1.0  0.02020  0.32469  0.80606  1.0000
  H   H184      1.0  0.07475  0.09984  0.58507  1.0000
  H   H185      1.0  0.19789  0.45502  0.82489  1.0000
  H   H186      1.0  0.20382  0.23768  0.94652  1.0000
  H   H187      1.0  0.04270  0.48912  0.72372  1.0000
  H   H188      1.0  0.00725  0.35716  0.71623  1.0000
  H   H189      1.0  0.27556  0.13683  0.94062  1.0000
  C   C116      1.0  0.30230  0.42625  0.83615  1.0000
  C   C117      1.0  0.21815  0.02728  0.70288  1.0000
  C   C118      1.0  0.13158  0.31235  0.00619  1.0000
  H   H190      1.0  0.27907  0.17951  0.97744  1.0000
  H   H191      1.0  0.02815  0.36895  0.95462  1.0000
  C   C119      1.0  0.00506  0.35510  0.74479  1.0000
  H   H192      1.0  0.24972  0.20910  0.91518  1.0000
  C   C120      1.0  0.05383  0.99859  0.82365  1.0000
  H   H193      1.0  0.29752  0.26938  0.78156  1.0000
  H   H194      1.0  0.24010  0.15644  0.01467  1.0000
  C   C121      1.0  0.27212  0.45899  0.71889  1.0000
  H   H195      1.0  0.08837  0.40869  0.68538  1.0000
  H   H196      1.0  0.26637  0.35714  0.82253  1.0000
  H   H197      1.0  0.03954  0.32798  0.91614  1.0000
  H   H198      1.0  0.25663  0.36647  0.77876  1.0000
  C   C122      1.0  0.19701  0.28173  0.95792  1.0000
  C   C123      1.0  0.26142  0.15543  0.93569  1.0000
  C   C124      1.0  0.25597  0.20884  0.94309  1.0000
  C   C125      1.0  0.27971  0.28620  0.69699  1.0000
  S   S37       1.0  0.01694  0.04651  0.71013  1.0000
  H   H199      1.0  0.00056  0.11669  0.85669  1.0000
  H   H200      1.0  0.08572  0.28800  0.71149  1.0000
  H   H201      1.0  0.17475  0.28680  0.73824  1.0000
  H   H202      1.0  0.10355  0.39852  0.72653  1.0000
  C   C126      1.0  0.31038  0.48643  0.86272  1.0000
  C   C127      1.0  0.27869  0.31698  0.74793  1.0000
  H   H203      1.0  0.28987  0.49049  0.87635  1.0000
  C   C128      1.0  0.00771  0.17999  0.74923  1.0000
  C   C129      1.0  0.27419  0.23883  0.99160  1.0000
  H   H204      1.0  0.28917  0.23951  0.90361  1.0000
  H   H205      1.0  0.25910  0.47424  0.70341  1.0000
  H   H206      1.0  0.05186  0.12487  0.53531  1.0000
  H   H207      1.0  0.26528  0.33122  0.73144  1.0000
  N   N5        1.0  0.22706  0.08842  0.77091  1.0000
  C   C130      1.0  0.23857  0.11812  0.76386  1.0000
  C   C131      1.0  0.24802  0.07146  0.79287  1.0000
  C   C132      1.0  0.22421  0.07353  0.73645  1.0000
  C   C133      1.0  0.19780  0.08897  0.78756  1.0000
  C   C134      1.0  0.19516  0.10624  0.82144  1.0000
  C   C135      1.0  0.21906  0.13822  0.74222  1.0000
  C   C136      1.0  0.21448  0.04171  0.73799  1.0000
  C   C137      1.0  0.26638  0.08806  0.81970  1.0000
  C   C138      1.0  0.28245  0.06749  0.84365  1.0000
  C   C139      1.0  0.16385  0.10843  0.83285  1.0000
  C   C140      1.0  0.23198  0.16823  0.73952  1.0000
  H   H208      1.0  0.09510  0.47643  0.59748  1.0000
  H   H209      1.0  0.25975  0.11678  0.75057  1.0000
  H   H210      1.0  0.24292  0.12959  0.78823  1.0000
  H   H211      1.0  0.23659  0.05400  0.80698  1.0000
  H   H212      1.0  0.26410  0.06053  0.77617  1.0000
  H   H213      1.0  0.24497  0.07469  0.72213  1.0000
  H   H214      1.0  0.20814  0.08445  0.71973  1.0000
  H   H215      1.0  0.18151  0.09703  0.76890  1.0000
  H   H216      1.0  0.19047  0.06690  0.79389  1.0000
  H   H217      1.0  0.20340  0.12837  0.81848  1.0000
  H   H218      1.0  0.20699  0.09529  0.84253  1.0000
  H   H219      1.0  0.21618  0.13020  0.71550  1.0000
  H   H220      1.0  0.19772  0.14043  0.75447  1.0000
  H   H221      1.0  0.19141  0.04034  0.74510  1.0000
  H   H222      1.0  0.22687  0.02905  0.75710  1.0000
  H   H223      1.0  0.28267  0.10144  0.80610  1.0000
  H   H224      1.0  0.25329  0.10233  0.83602  1.0000
  H   H225      1.0  0.29664  0.07977  0.86125  1.0000
  H   H226      1.0  0.26709  0.05492  0.85965  1.0000
  H   H227      1.0  0.29598  0.05265  0.82845  1.0000
  H   H228      1.0  0.16255  0.12025  0.85763  1.0000
  H   H229      1.0  0.15110  0.12026  0.81318  1.0000
  H   H230      1.0  0.15434  0.08684  0.83665  1.0000
  H   H231      1.0  0.21783  0.18196  0.72342  1.0000
  H   H232      1.0  0.23375  0.17799  0.76558  1.0000
  H   H233      1.0  0.25357  0.16752  0.72740  1.0000
  H   H234      1.0  0.03486  0.03432  0.84948  1.0000
  H   H235      1.0  0.30098  0.32520  0.74480  1.0000
  H   H236      1.0  0.07964  0.43703  0.96607  1.0000
  H   H237      1.0  0.04713  0.19696  0.72625  1.0000
  H   H238      1.0  0.28516  0.31095  0.80391  1.0000
  C   C141      1.0  0.06684  0.41687  0.96533  1.0000
  C   C142      1.0  0.27555  0.18270  0.94931  1.0000
  N   N6        1.0  0.28838  0.45128  0.81808  1.0000
  H   H239      1.0  0.02441  0.43971  0.71653  1.0000
  C   C143      1.0  0.25841  0.45480  0.83211  1.0000
  C   C144      1.0  0.28800  0.44555  0.77968  1.0000
  H   H240      1.0  0.01963  0.16490  0.76602  1.0000
  C   C145      1.0  0.00519  0.01158  0.71923  1.0000
  H   H241      1.0  0.00436  0.34336  0.86467  1.0000
  N   N7        1.0  0.27669  0.28638  0.73586  1.0000
  C   C146      1.0  0.23723  0.42985  0.82478  1.0000
  C   C147      1.0  0.20734  0.43647  0.83881  1.0000
  H   H242      1.0  0.23606  0.20395  0.95781  1.0000
  H   H243      1.0  0.19546  0.28903  0.93058  1.0000
  C   C148      1.0  0.30527  0.27520  0.93268  1.0000
  H   H244      1.0  0.07311  0.37026  0.92406  1.0000
  H   H245      1.0  0.25901  0.45707  0.86072  1.0000
  H   H246      1.0  0.27028  0.26068  0.00188  1.0000
  H   H247      1.0  0.28001  0.42357  0.77430  1.0000
  H   H248      1.0  0.30493  0.28359  0.95946  1.0000
  H   H249      1.0  0.24116  0.02659  0.69548  1.0000
  H   H250      1.0  0.19309  0.41771  0.83491  1.0000
  C   C149      1.0  0.00126  0.01160  0.81988  1.0000
  C   C150      1.0  0.08839  0.38344  0.00965  1.0000
  H   H251      1.0  0.30330  0.27539  0.63187  1.0000
  C   C151      1.0  0.30981  0.29440  0.68273  1.0000
  H   H252      1.0  0.23503  0.42572  0.79668  1.0000
  H   H253      1.0  0.24453  0.40990  0.83761  1.0000
  C   C152      1.0  0.06720  0.10805  0.53058  1.0000
  H   H254      1.0  0.28366  0.22535  0.75240  1.0000
  H   H255      1.0  0.05791  0.41612  0.93859  1.0000
  H   H256      1.0  0.24057  0.15146  0.94878  1.0000
  H   H257      1.0  0.11604  0.38220  0.90537  1.0000
  C   C153      1.0  0.11560  0.39791  0.95850  1.0000
  C   C154      1.0  0.07491  0.36545  0.95221  1.0000
  C   C155      1.0  0.24827  0.27297  0.74538  1.0000
  C   C156      1.0  0.01513  0.36394  0.85840  1.0000
  H   H258      1.0  0.21688  0.24877  0.98838  1.0000
  C   C157      1.0  0.30494  0.47854  0.82433  1.0000
  H   H259      1.0  0.08923  0.47246  0.78004  1.0000
  H   H260      1.0  0.24238  0.26127  0.91589  1.0000
  H   H261      1.0  0.01444  0.25753  0.80622  1.0000
  H   H262      1.0  0.22121  0.31177  0.74140  1.0000
  C   C158      1.0  0.27045  0.32238  0.78619  1.0000
  C   C159      1.0  0.24542  0.25976  0.94445  1.0000
  C   C160      1.0  0.00557  0.13990  0.85620  1.0000
  H   H263      1.0  0.25778  0.15709  0.90739  1.0000
  H   H264      1.0  0.03249  0.16612  0.70485  1.0000
  H   H265      1.0  0.19231  0.25252  0.73933  1.0000
  H   H266      1.0  0.29404  0.36252  0.79047  1.0000
  H   H267      1.0  0.20987  0.00501  0.70433  1.0000
  C   C161      1.0  0.27202  0.35414  0.79487  1.0000
  H   H268      1.0  0.01157  0.43866  0.95256  1.0000
  H   H269      1.0  0.01675  0.31786  0.95181  1.0000
  H   H270      1.0  0.09070  0.34771  0.95441  1.0000
  C   C162      1.0  0.29394  0.24399  0.93120  1.0000
  H   H271      1.0  0.24755  0.46695  0.76452  1.0000
  Fe  Fe20      1.0  0.31349  0.16638  0.85010  1.0000
  C   C163      1.0  0.03482  0.03895  0.60479  1.0000
  N   N8        1.0  0.03378  0.34924  0.76117  1.0000
  C   C164      1.0  0.03092  0.34532  0.79981  1.0000
  C   C165      1.0  0.04581  0.32212  0.74609  1.0000
  C   C166      1.0  0.05328  0.37446  0.75426  1.0000
  H   H272      1.0  0.29148  0.28922  0.91640  1.0000
  C   C167      1.0  0.03227  0.02307  0.82450  1.0000
  C   C168      1.0  0.06129  0.38022  0.71588  1.0000
  C   C169      1.0  0.07713  0.31481  0.75638  1.0000
  C   C170      1.0  0.08654  0.28661  0.74017  1.0000
  C   C171      1.0  0.08336  0.40441  0.71302  1.0000
  H   H273      1.0  0.05245  0.34359  0.81187  1.0000
  C   C172      1.0  0.14765  0.41505  0.90911  1.0000
  H   H274      1.0  0.03263  0.30344  0.75436  1.0000
  H   H275      1.0  0.04431  0.32250  0.71734  1.0000
  H   H276      1.0  0.07348  0.37235  0.76924  1.0000
  H   H277      1.0  0.04329  0.39456  0.76356  1.0000
  H   H278      1.0  0.02169  0.21602  0.77880  1.0000
  H   H279      1.0  0.32054  0.24790  0.99523  1.0000
  N   N9        1.0  0.26792  0.23767  0.95318  1.0000
  H   H280      1.0  0.04208  0.38683  0.70090  1.0000
  H   H281      1.0  0.07072  0.36114  0.70351  1.0000
  H   H282      1.0  0.09235  0.33162  0.74760  1.0000
  H   H283      1.0  0.32063  0.04088  0.75010  1.0000
  H   H284      1.0  0.10892  0.28170  0.74804  1.0000
  H   H285      1.0  0.07259  0.26875  0.74918  1.0000
  C   C173      1.0  0.01491  0.36939  0.81939  1.0000
  C   C174      1.0  0.99959  0.25096  0.82732  1.0000
  C   C175      1.0  0.00958  0.45699  0.72096  1.0000
  H   H286      1.0  0.07604  0.00724  0.82485  1.0000
  H   H287      1.0  0.02521  0.39047  0.81494  1.0000
  H   H288      1.0  0.02860  0.40198  0.99489  1.0000
  H   H289      1.0  0.15083  0.43645  0.92079  1.0000
  H   H290      1.0  0.07917  0.31237  0.78482  1.0000
  H   H291      1.0  0.24650  0.25114  0.73430  1.0000
  H   H292      1.0  0.03185  0.05182  0.62860  1.0000
  C   C176      1.0  0.21535  0.25486  0.96065  1.0000
  H   H293      1.0  0.24680  0.26964  0.77383  1.0000
  H   H294      1.0  0.25898  0.22475  0.00601  1.0000
  H   H295      1.0  0.29653  0.18508  0.93615  1.0000
  H   H296      1.0  0.02487  0.05020  0.58246  1.0000
  H   H297      1.0  0.29457  0.31307  0.63425  1.0000
  H   H298      1.0  0.19410  0.27592  0.77639  1.0000
  H   H299      1.0  0.20817  0.44108  0.86696  1.0000
  H   H300      1.0  0.00124  0.14876  0.88230  1.0000
  H   H301      1.0  0.26414  0.30134  0.68510  1.0000
  H   H302      1.0  0.21964  0.28876  0.70436  1.0000
  C   C177      1.0  0.02188  0.00913  0.60945  1.0000
  N   N10       1.0  0.08578  0.39119  0.97178  1.0000
  C   C178      1.0  0.15307  0.33257  0.99956  1.0000
  C   C179      1.0  0.19398  0.27516  0.74764  1.0000
  C   C180      1.0  0.22113  0.28917  0.73302  1.0000
  H   H303      1.0  0.99615  0.05968  0.86305  1.0000
  H   H304      1.0  0.06994  0.46173  0.54477  1.0000
  C   C181      1.0  0.04151  0.42157  0.99078  1.0000
  H   H305      1.0  0.29983  0.42792  0.86471  1.0000
  H   H306      1.0  0.20620  0.29918  0.97387  1.0000
  C   C182      1.0  0.02688  0.18641  0.71801  1.0000
  H   H307      1.0  0.01190  0.23804  0.84628  1.0000
  H   H308      1.0  0.29113  0.40610  0.82919  1.0000
  H   H309      1.0  0.10162  0.41770  0.90911  1.0000
  C   C183      1.0  0.30513  0.23102  0.00324  1.0000
  C   C184      1.0  0.11829  0.40286  0.91892  1.0000
  H   H310      1.0  0.12422  0.41747  0.97106  1.0000
  H   H311      1.0  0.31023  0.44589  0.76921  1.0000
  H   H312      1.0  0.32606  0.47785  0.81109  1.0000
  H   H313      1.0  0.05816  0.03709  0.59969  1.0000
  H   H314      1.0  0.31696  0.31547  0.69260  1.0000
  H   H315      1.0  0.99751  0.05176  0.92656  1.0000
  H   H316      1.0  0.16501  0.40048  0.91783  1.0000
  H   H317      1.0  0.27376  0.26497  0.68625  1.0000
  C   C185      1.0  0.02140  0.44495  0.97759  1.0000
  C   C186      1.0  0.04505  0.35367  0.96271  1.0000
  H   H318      1.0  0.03816  0.03778  0.80297  1.0000
  H   H319      1.0  0.01634  0.19102  0.82954  1.0000
  C   C187      1.0  0.27054  0.46689  0.75716  1.0000
  H   H320      1.0  0.04970  0.42839  0.01642  1.0000
  C   C188      1.0  0.00075  0.20766  0.76929  1.0000
  H   H321      1.0  0.13066  0.38038  0.96550  1.0000
  H   H322      1.0  0.99679  0.37613  0.75340  1.0000
  H   H323      1.0  0.03324  0.46542  0.97408  1.0000
  H   H324      1.0  0.32208  0.46925  0.87659  1.0000
  H   H325      1.0  0.04344  0.34954  0.99088  1.0000
  H   H326      1.0  0.32603  0.27819  0.69022  1.0000
  H   H327      1.0  0.31189  0.22940  0.93756  1.0000
  H   H328      1.0  0.26362  0.43708  0.71463  1.0000
  H   H329      1.0  0.27906  0.48893  0.75963  1.0000
  H   H330      1.0  0.05423  0.30877  0.95273  1.0000
  H   H331      1.0  0.29463  0.46020  0.70952  1.0000
  C   C189      1.0  0.32391  0.14094  0.00139  1.0000
  C   C190      1.0  0.03859  0.32538  0.94465  1.0000
  C   C191      1.0  0.30237  0.23758  0.74230  1.0000
  H   H332      1.0  0.00351  0.38139  0.87171  1.0000
  H   H333      1.0  0.31770  0.13358  0.97603  1.0000
  H   H334      1.0  0.32151  0.27989  0.74868  1.0000
  H   H335      1.0  0.31246  0.21075  0.99183  1.0000
  H   H336      1.0  0.32574  0.00631  0.83371  1.0000
  H   H337      1.0  0.30317  0.23513  0.71383  1.0000
  S   S38       1.0  0.14502  0.48422  0.74789  1.0000
  H   H338      1.0  0.02870  0.14265  0.84999  1.0000
  C   C192      1.0  0.01993  0.48504  0.72472  1.0000
  H   H339      1.0  0.99865  0.99351  0.83827  1.0000
  H   H340      1.0  0.10268  0.48016  0.53428  1.0000
  H   H341      1.0  0.01558  0.20043  0.69919  1.0000
  H   H342      1.0  0.00891  0.28967  0.85579  1.0000
  H   H343      1.0  0.04739  0.99316  0.72302  1.0000
  C   C193      1.0  0.08071  0.48295  0.54453  1.0000
  H   H344      1.0  0.02574  0.99676  0.58551  1.0000
  H   H345      1.0  0.00391  0.44838  0.99664  1.0000
  H   H346      1.0  0.00302  0.06810  0.80287  1.0000
  Fe  Fe21      1.0  0.20135  0.85348  0.22340  1.0000
  S   S39       1.0  0.16924  0.82280  0.24669  1.0000
  S   S40       1.0  0.23064  0.87702  0.26131  1.0000
  Fe  Fe22      1.0  0.17829  0.84325  0.14906  1.0000
  S   S41       1.0  0.14502  0.81205  0.16761  1.0000
  S   S42       1.0  0.18655  0.85346  0.09203  1.0000
  Fe  Fe23      1.0  0.13671  0.84277  0.21126  1.0000
  S   S43       1.0  0.09158  0.85863  0.22454  1.0000
  Fe  Fe24      1.0  0.18056  0.79536  0.20126  1.0000
  S   S44       1.0  0.18729  0.74810  0.20717  1.0000
  S   S45       1.0  0.16800  0.87558  0.19049  1.0000
  S   S46       1.0  0.21453  0.82449  0.18021  1.0000
  Fe  Fe25      1.0  0.05657  0.60777  0.42636  1.0000
  S   S47       1.0  0.09123  0.57999  0.40462  1.0000
  S   S48       1.0  0.04695  0.61615  0.48317  1.0000
  Fe  Fe26      1.0  0.02960  0.61915  0.35459  1.0000
  S   S49       1.0  0.06239  0.59201  0.32731  1.0000
  C   C194      1.0  0.99637  0.72745  0.33893  1.0000
  Fe  Fe27      1.0  0.05570  0.56174  0.37205  1.0000
  S   S50       1.0  0.05308  0.51393  0.36728  1.0000
  Fe  Fe28      1.0  0.09547  0.61258  0.36171  1.0000
  S   S51       1.0  0.13772  0.63315  0.34361  1.0000
  S   S52       1.0  0.02063  0.58718  0.39662  1.0000
  S   S53       1.0  0.06304  0.64218  0.38609  1.0000
  H   H347      1.0  0.13286  0.52330  0.42361  1.0000
  Fe  Fe29      1.0  0.28344  0.60247  0.24455  1.0000
  C   C195      1.0  0.10868  0.97942  0.29312  1.0000
  S   S54       1.0  0.24435  0.57755  0.26436  1.0000
  H   H348      1.0  0.12100  0.51397  0.50111  1.0000
  H   H349      1.0  0.01304  0.71072  0.42298  1.0000
  S   S55       1.0  0.28078  0.63580  0.20281  1.0000
  H   H350      1.0  0.32321  0.72912  0.33951  1.0000
  H   H351      1.0  0.13431  0.55014  0.45718  1.0000
  C   C196      1.0  0.09374  0.58870  0.51281  1.0000
  H   H352      1.0  0.10314  0.58873  0.48724  1.0000
  C   C197      1.0  0.16709  0.61688  0.32176  1.0000
  C   C198      1.0  0.19223  0.63299  0.31603  1.0000
  C   C199      1.0  0.21571  0.62151  0.29785  1.0000
  C   C200      1.0  0.21464  0.59341  0.28579  1.0000
  C   C201      1.0  0.18969  0.57707  0.29190  1.0000
  C   C202      1.0  0.16596  0.58878  0.30957  1.0000
  H   H353      1.0  0.19373  0.65441  0.32605  1.0000
  H   H354      1.0  0.23484  0.63423  0.29371  1.0000
  H   H355      1.0  0.18866  0.55525  0.28294  1.0000
  H   H356      1.0  0.14686  0.57605  0.31386  1.0000
  H   H357      1.0  0.25670  0.58299  0.34176  1.0000
  C   C203      1.0  0.11600  0.50929  0.47366  1.0000
  C   C204      1.0  0.99448  0.51680  0.35862  1.0000
  C   C205      1.0  0.16881  0.83663  0.05682  1.0000
  H   H358      1.0  0.08135  0.51685  0.43712  1.0000
  C   C206      1.0  0.27628  0.81235  0.12321  1.0000
  C   C207      1.0  0.14877  0.81466  0.06188  1.0000
  H   H359      1.0  0.07435  0.91497  0.19960  1.0000
  H   H360      1.0  0.99513  0.64860  0.40807  1.0000
  H   H361      1.0  0.14354  0.80773  0.08786  1.0000
  C   C208      1.0  0.22237  0.73663  0.21584  1.0000
  C   C209      1.0  0.24591  0.75494  0.21166  1.0000
  C   C210      1.0  0.27365  0.74534  0.21935  1.0000
  C   C211      1.0  0.27784  0.71759  0.23194  1.0000
  C   C212      1.0  0.25435  0.69930  0.23617  1.0000
  C   C213      1.0  0.22675  0.70861  0.22752  1.0000
  H   H362      1.0  0.24286  0.77646  0.20253  1.0000
  H   H363      1.0  0.29178  0.75952  0.21572  1.0000
  H   H364      1.0  0.25731  0.67807  0.24667  1.0000
  H   H365      1.0  0.20879  0.69411  0.23035  1.0000
  C   C214      1.0  0.02610  0.83881  0.31114  1.0000
  C   C215      1.0  0.02060  0.85974  0.28609  1.0000
  C   C216      1.0  0.04092  0.86543  0.25986  1.0000
  C   C217      1.0  0.06713  0.85061  0.25859  1.0000
  C   C218      1.0  0.07293  0.83013  0.28414  1.0000
  C   C219      1.0  0.05236  0.82408  0.31001  1.0000
  C   C220      1.0  0.17529  0.84532  0.02278  1.0000
  H   H366      1.0  0.03622  0.88135  0.24028  1.0000
  H   H367      1.0  0.09312  0.81884  0.28379  1.0000
  H   H368      1.0  0.05685  0.80800  0.32935  1.0000
  C   C221      1.0  0.26739  0.86910  0.26895  1.0000
  C   C222      1.0  0.28139  0.88146  0.29750  1.0000
  C   C223      1.0  0.31044  0.87545  0.30470  1.0000
  H   H369      1.0  0.29024  0.81328  0.31816  1.0000
  H   H370      1.0  0.13902  0.98337  0.33703  1.0000
  C   C224      1.0  0.28288  0.85088  0.24739  1.0000
  H   H371      1.0  0.26959  0.89563  0.31428  1.0000
  H   H372      1.0  0.25722  0.50976  0.17247  1.0000
  H   H373      1.0  0.30095  0.67452  0.12745  1.0000
  H   H374      1.0  0.27246  0.84134  0.22525  1.0000
  H   H375      1.0  0.22293  0.78700  0.06788  1.0000
  H   H376      1.0  0.16498  0.88790  0.27786  1.0000
  C   C225      1.0  0.28184  0.73475  0.36272  1.0000
  H   H377      1.0  0.27826  0.58295  0.38031  1.0000
  H   H378      1.0  0.02833  0.54670  0.50717  1.0000
  H   H379      1.0  0.29494  0.55922  0.30885  1.0000
  Fe  Fe30      1.0  0.31786  0.61416  0.17696  1.0000
  C   C226      1.0  0.12829  0.93154  0.30146  1.0000
  C   C227      1.0  0.12529  0.89875  0.30454  1.0000
  H   H380      1.0  0.23680  0.67699  0.10921  1.0000
  C   C228      1.0  0.05896  0.91926  0.32571  1.0000
  C   C229      1.0  0.04416  0.91498  0.36066  1.0000
  H   H381      1.0  0.26607  0.49297  0.24292  1.0000
  C   C230      1.0  0.28283  0.68469  0.11353  1.0000
  H   H382      1.0  0.12577  0.98276  0.27344  1.0000
  S   S56       1.0  0.99597  0.64550  0.32559  1.0000
  H   H383      1.0  0.16456  0.51822  0.22885  1.0000
  H   H384      1.0  0.00050  0.87122  0.28653  1.0000
  H   H385      1.0  0.14390  0.93654  0.28044  1.0000
  H   H386      1.0  0.11235  0.88981  0.28324  1.0000
  H   H387      1.0  0.11523  0.89300  0.32967  1.0000
  C   C231      1.0  0.30340  0.74128  0.33327  1.0000
  C   C232      1.0  0.24921  0.52645  0.19022  1.0000
  H   H388      1.0  0.04197  0.92393  0.30631  1.0000
  H   H389      1.0  0.06901  0.89876  0.31858  1.0000
  C   C233      1.0  0.25527  0.66958  0.12497  1.0000
  C   C234      1.0  0.10415  0.94125  0.22946  1.0000
  H   H390      1.0  0.03345  0.93495  0.36901  1.0000
  H   H391      1.0  0.31940  0.51938  0.39335  1.0000
  H   H392      1.0  0.00071  0.55976  0.24578  1.0000
  H   H393      1.0  0.13915  0.93831  0.32563  1.0000
  H   H394      1.0  0.06947  0.95307  0.19433  1.0000
  S   S57       1.0  0.31221  0.60525  0.11918  1.0000
  H   H395      1.0  0.12019  0.78447  0.03751  1.0000
  C   C235      1.0  0.13557  0.80148  0.03324  1.0000
  C   C236      1.0  0.15462  0.88428  0.30343  1.0000
  H   H396      1.0  0.15192  0.86091  0.30737  1.0000
  C   C237      1.0  0.03288  0.51004  0.47104  1.0000
  H   H397      1.0  0.08253  0.54018  0.47258  1.0000
  C   C238      1.0  0.01876  0.49938  0.36041  1.0000
  S   S58       1.0  0.31475  0.62704  0.27726  1.0000
  C   C239      1.0  0.21302  0.76841  0.05468  1.0000
  H   H398      1.0  0.05998  0.90840  0.38063  1.0000
  S   S59       1.0  0.00048  0.82953  0.34346  1.0000
  H   H399      1.0  0.01764  0.76475  0.31392  1.0000
  H   H400      1.0  0.00431  0.55841  0.29218  1.0000
  C   C240      1.0  0.22078  0.51700  0.20793  1.0000
  C   C241      1.0  0.28395  0.79057  0.32289  1.0000
  N   N11       1.0  0.10089  0.94805  0.29616  1.0000
  H   H401      1.0  0.25076  0.67382  0.15270  1.0000
  C   C242      1.0  0.32593  0.85724  0.28309  1.0000
  H   H402      1.0  0.28446  0.53844  0.34615  1.0000
  C   C243      1.0  0.26293  0.78215  0.29356  1.0000
  C   C244      1.0  0.32614  0.62507  0.08344  1.0000
  H   H403      1.0  0.26078  0.72489  0.11020  1.0000
  C   C245      1.0  0.00708  0.98099  0.32529  1.0000
  C   C246      1.0  0.23386  0.79663  0.29774  1.0000
  H   H404      1.0  0.29149  0.74000  0.38808  1.0000
  H   H405      1.0  0.27157  0.79094  0.34736  1.0000
  C   C247      1.0  0.06663  0.60068  0.51785  1.0000
  H   H406      1.0  0.21944  0.74846  0.06826  1.0000
  N   N12       1.0  0.31048  0.77232  0.32637  1.0000
  C   C248      1.0  0.24507  0.55382  0.16900  1.0000
  C   C249      1.0  0.13677  0.52701  0.45160  1.0000
  H   H407      1.0  0.26148  0.74659  0.35937  1.0000
  H   H408      1.0  0.29355  0.68970  0.36733  1.0000
  H   H409      1.0  0.27185  0.78917  0.26827  1.0000
  H   H410      1.0  0.25904  0.75879  0.29286  1.0000
  C   C250      1.0  0.27630  0.78196  0.10894  1.0000
  H   H411      1.0  0.18939  0.77080  0.05658  1.0000
  C   C251      1.0  0.99387  0.54772  0.47054  1.0000
  H   H412      1.0  0.26586  0.56046  0.15731  1.0000
  H   H413      1.0  0.31910  0.99093  0.40065  1.0000
  Fe  Fe31      1.0  0.31464  0.65858  0.23339  1.0000
  H   H414      1.0  0.31925  0.51786  0.30179  1.0000
  H   H415      1.0  0.23745  0.57146  0.18575  1.0000
  H   H416      1.0  0.01560  0.49599  0.48164  1.0000
  H   H417      1.0  0.21990  0.79084  0.27557  1.0000
  H   H418      1.0  0.22322  0.78949  0.32201  1.0000
  H   H419      1.0  0.23639  0.82022  0.29813  1.0000
  H   H420      1.0  0.06644  0.95321  0.25937  1.0000
  C   C252      1.0  0.27406  0.70296  0.36349  1.0000
  H   H421      1.0  0.02763  0.89791  0.35848  1.0000
  N   N13       1.0  0.06174  0.49988  0.48382  1.0000
  H   H422      1.0  0.31332  0.76435  0.27128  1.0000
  C   C253      1.0  0.02514  0.54149  0.47948  1.0000
  S   S60       1.0  0.31838  0.57859  0.21675  1.0000
  H   H423      1.0  0.32382  0.83132  0.23715  1.0000
  H   H424      1.0  0.22939  0.55031  0.14781  1.0000
  H   H425      1.0  0.24139  0.51122  0.27013  1.0000
  H   H426      1.0  0.00168  0.77154  0.43547  1.0000
  H   H427      1.0  0.29955  0.78493  0.39800  1.0000
  H   H428      1.0  0.01703  0.97395  0.30156  1.0000
  H   H429      1.0  0.25685  0.82382  0.11398  1.0000
  C   C254      1.0  0.28131  0.71714  0.12142  1.0000
  H   H430      1.0  0.32234  0.77794  0.11729  1.0000
  H   H431      1.0  0.21436  0.53442  0.22586  1.0000
  C   C255      1.0  0.99696  0.75302  0.31316  1.0000
  H   H432      1.0  0.03146  0.50858  0.44236  1.0000
  H   H433      1.0  0.25896  0.69858  0.38513  1.0000
  H   H434      1.0  0.16888  0.89263  0.32408  1.0000
  C   C256      1.0  0.27907  0.58364  0.35160  1.0000
  N   N14       1.0  0.12999  0.70608  0.26515  1.0000
  C   C257      1.0  0.13599  0.69026  0.23190  1.0000
  C   C258      1.0  0.12212  0.73696  0.25788  1.0000
  C   C259      1.0  0.15732  0.70585  0.28614  1.0000
  C   C260      1.0  0.10685  0.69155  0.28604  1.0000
  C   C261      1.0  0.07704  0.68982  0.26872  1.0000
  C   C262      1.0  0.14567  0.65861  0.23554  1.0000
  C   C263      1.0  0.15721  0.72325  0.32023  1.0000
  C   C264      1.0  0.10595  0.74358  0.22362  1.0000
  C   C265      1.0  0.09359  0.77379  0.22379  1.0000
  C   C266      1.0  0.05671  0.67099  0.28965  1.0000
  C   C267      1.0  0.15032  0.64513  0.20007  1.0000
  C   C268      1.0  0.18760  0.72626  0.33474  1.0000
  H   H435      1.0  0.15296  0.70160  0.21703  1.0000
  H   H436      1.0  0.11716  0.69023  0.21448  1.0000
  H   H437      1.0  0.10927  0.74572  0.27968  1.0000
  H   H438      1.0  0.14172  0.75066  0.25670  1.0000
  H   H439      1.0  0.17543  0.71384  0.26997  1.0000
  H   H440      1.0  0.16287  0.68376  0.29411  1.0000
  H   H441      1.0  0.11357  0.66969  0.29371  1.0000
  H   H442      1.0  0.10353  0.70278  0.31095  1.0000
  H   H443      1.0  0.07819  0.68056  0.24247  1.0000
  H   H444      1.0  0.06737  0.71144  0.26724  1.0000
  H   H445      1.0  0.16639  0.65688  0.24948  1.0000
  H   H446      1.0  0.12935  0.64555  0.24935  1.0000
  H   H447      1.0  0.14406  0.71202  0.34007  1.0000
  H   H448      1.0  0.14865  0.74512  0.31653  1.0000
  H   H449      1.0  0.12108  0.74207  0.20146  1.0000
  H   H450      1.0  0.08800  0.72863  0.21881  1.0000
  H   H451      1.0  0.07636  0.77556  0.24351  1.0000
  H   H452      1.0  0.11060  0.78977  0.22945  1.0000
  H   H453      1.0  0.08429  0.77894  0.19805  1.0000
  H   H454      1.0  0.05434  0.67909  0.31643  1.0000
  H   H455      1.0  0.03533  0.67087  0.27700  1.0000
  H   H456      1.0  0.06474  0.64870  0.29067  1.0000
  H   H457      1.0  0.13006  0.64509  0.18495  1.0000
  H   H458      1.0  0.16713  0.65702  0.18545  1.0000
  H   H459      1.0  0.15755  0.62268  0.20345  1.0000
  H   H460      1.0  0.19686  0.70492  0.34045  1.0000
  H   H461      1.0  0.20167  0.73766  0.31595  1.0000
  H   H462      1.0  0.18702  0.73868  0.35913  1.0000
  H   H463      1.0  0.28552  0.68056  0.08552  1.0000
  H   H464      1.0  0.27595  0.81200  0.15196  1.0000
  H   H465      1.0  0.30591  0.96202  0.34987  1.0000
  C   C269      1.0  0.03138  0.74962  0.37950  1.0000
  C   C270      1.0  0.05724  0.73505  0.36158  1.0000
  C   C271      1.0  0.08454  0.51729  0.46564  1.0000
  C   C272      1.0  0.08513  0.75099  0.36948  1.0000
  C   C273      1.0  0.08589  0.93971  0.26302  1.0000
  H   H466      1.0  0.31135  0.49815  0.35697  1.0000
  H   H467      1.0  0.26346  0.69663  0.33891  1.0000
  H   H468      1.0  0.27878  0.71953  0.14993  1.0000
  H   H469      1.0  0.20409  0.51693  0.18754  1.0000
  H   H470      1.0  0.02997  0.77202  0.36967  1.0000
  H   H471      1.0  0.05454  0.73481  0.33307  1.0000
  H   H472      1.0  0.05991  0.71272  0.37073  1.0000
  C   C274      1.0  0.00413  0.70697  0.39665  1.0000
  H   H473      1.0  0.25607  0.77155  0.11754  1.0000
  H   H474      1.0  0.08960  0.75061  0.39772  1.0000
  H   H475      1.0  0.10323  0.74053  0.35606  1.0000
  H   H476      1.0  0.08395  0.77350  0.36045  1.0000
  H   H477      1.0  0.28372  0.73954  0.05927  1.0000
  H   H478      1.0  0.29504  0.73098  0.30937  1.0000
  H   H479      1.0  0.31078  0.71321  0.05940  1.0000
  H   H480      1.0  0.03728  0.75174  0.40725  1.0000
  H   H481      1.0  0.12115  0.92466  0.23008  1.0000
  H   H482      1.0  0.28909  0.60404  0.34308  1.0000
  H   H483      1.0  0.26598  0.53114  0.20978  1.0000
  H   H484      1.0  0.09941  0.93543  0.17407  1.0000
  H   H485      1.0  0.01926  0.69182  0.38425  1.0000
  H   H486      1.0  0.19276  0.49408  0.27118  1.0000
  H   H487      1.0  0.01121  0.71066  0.32933  1.0000
  C   C275      1.0  0.29576  0.55812  0.33757  1.0000
  C   C276      1.0  0.31607  0.61914  0.04988  1.0000
  H   H488      1.0  0.03864  0.55620  0.46380  1.0000
  H   H489      1.0  0.15919  0.52080  0.45767  1.0000
  S   S61       1.0  0.31240  0.70584  0.24226  1.0000
  C   C277      1.0  0.08085  0.94441  0.32677  1.0000
  C   C278      1.0  0.32634  0.77384  0.29233  1.0000
  C   C279      1.0  0.08561  0.93585  0.19751  1.0000
  H   H490      1.0  0.25763  0.64614  0.12147  1.0000
  H   H491      1.0  0.09341  0.94271  0.35122  1.0000
  H   H492      1.0  0.07778  0.91744  0.26417  1.0000
  H   H493      1.0  0.27617  0.78369  0.08033  1.0000
  N   N15       1.0  0.00286  0.73452  0.37616  1.0000
  H   H494      1.0  0.01007  0.72830  0.26822  1.0000
  C   C280      1.0  0.31204  0.84526  0.25423  1.0000
  H   H495      1.0  0.32075  0.88476  0.32704  1.0000
  H   H496      1.0  0.06725  0.96378  0.32980  1.0000
  H   H497      1.0  0.30000  0.60269  0.04635  1.0000
  H   H498      1.0  0.30536  0.81902  0.37756  1.0000
  H   H499      1.0  0.11439  0.96242  0.22576  1.0000
  H   H500      1.0  0.32195  0.95324  0.40948  1.0000
  C   C281      1.0  0.31590  0.79879  0.38571  1.0000
  C   C282      1.0  0.16548  0.49452  0.22719  1.0000
  H   H501      1.0  0.99665  0.53970  0.36042  1.0000
  C   C283      1.0  0.30562  0.73493  0.06921  1.0000
  H   H502      1.0  0.29550  0.82434  0.11419  1.0000
  C   C284      1.0  0.30266  0.76500  0.12224  1.0000
  H   H503      1.0  0.30045  0.76443  0.15087  1.0000
  N   N16       1.0  0.30598  0.73513  0.10829  1.0000
  H   H504      1.0  0.32260  0.70148  0.16878  1.0000
  H   H505      1.0  0.32402  0.77792  0.05898  1.0000
  H   H506      1.0  0.16677  0.83959  0.96818  1.0000
  Fe  Fe32      1.0  0.31007  0.67151  0.87305  1.0000
  S   S62       1.0  0.26259  0.67342  0.86163  1.0000
  Fe  Fe33      1.0  0.17100  0.80410  0.84685  1.0000
  S   S63       1.0  0.14607  0.76939  0.87338  1.0000
  S   S64       1.0  0.21782  0.79897  0.83491  1.0000
  Fe  Fe34      1.0  0.12138  0.84516  0.84477  1.0000
  S   S65       1.0  0.09230  0.81327  0.87172  1.0000
  S   S66       1.0  0.10153  0.88798  0.82966  1.0000
  Fe  Fe35      1.0  0.12974  0.80464  0.90715  1.0000
  S   S67       1.0  0.12493  0.79263  0.96410  1.0000
  Fe  Fe36      1.0  0.11122  0.78049  0.83610  1.0000
  S   S68       1.0  0.08258  0.74763  0.80967  1.0000
  S   S69       1.0  0.15727  0.83887  0.88309  1.0000
  S   S70       1.0  0.13743  0.81290  0.80646  1.0000
  Fe  Fe37      1.0  0.11026  0.58807  0.73858  1.0000
  S   S71       1.0  0.14006  0.56098  0.70674  1.0000
  S   S72       1.0  0.13088  0.62479  0.76873  1.0000
  Fe  Fe38      1.0  0.06001  0.54951  0.72118  1.0000
  S   S73       1.0  0.08567  0.52018  0.68739  1.0000
  S   S74       1.0  0.01288  0.54326  0.73199  1.0000
  Fe  Fe39      1.0  0.11815  0.52251  0.73030  1.0000
  C   C285      1.0  0.16179  0.83241  0.99414  1.0000
  Fe  Fe40      1.0  0.10513  0.56078  0.66636  1.0000
  S   S75       1.0  0.11872  0.56493  0.60973  1.0000
  S   S76       1.0  0.09126  0.54953  0.76545  1.0000
  S   S77       1.0  0.07672  0.59027  0.69679  1.0000
  C   C286      1.0  0.11576  0.91532  0.80261  1.0000
  C   C287      1.0  0.09810  0.93855  0.79383  1.0000
  C   C288      1.0  0.10836  0.96098  0.77266  1.0000
  C   C289      1.0  0.13646  0.96045  0.76013  1.0000
  C   C290      1.0  0.15403  0.93699  0.76843  1.0000
  C   C291      1.0  0.14373  0.91445  0.78951  1.0000
  H   H507      1.0  0.07635  0.93918  0.80351  1.0000
  H   H508      1.0  0.22015  0.78974  0.00637  1.0000
  H   H509      1.0  0.17574  0.93633  0.75861  1.0000
  H   H510      1.0  0.15747  0.89662  0.79593  1.0000
  C   C292      1.0  0.09630  0.71368  0.79797  1.0000
  C   C293      1.0  0.07931  0.69501  0.77820  1.0000
  C   C294      1.0  0.08945  0.66770  0.76895  1.0000
  C   C295      1.0  0.11684  0.65891  0.77926  1.0000
  C   C296      1.0  0.13392  0.67778  0.79872  1.0000
  C   C297      1.0  0.12369  0.70492  0.80816  1.0000
  H   H511      1.0  0.05828  0.70177  0.76980  1.0000
  H   H512      1.0  0.07617  0.65349  0.75378  1.0000
  H   H513      1.0  0.15519  0.67142  0.80663  1.0000
  H   H514      1.0  0.13702  0.71903  0.82334  1.0000
  C   C298      1.0  0.01430  0.96165  0.73263  1.0000
  C   C299      1.0  0.10920  0.57755  0.54115  1.0000
  H   H515      1.0  0.21265  0.74659  0.77004  1.0000
  H   H516      1.0  0.02926  0.94440  0.73665  1.0000
  H   H517      1.0  0.01093  0.90379  0.63154  1.0000
  C   C300      1.0  0.25043  0.70830  0.85343  1.0000
  C   C301      1.0  0.26943  0.73149  0.85356  1.0000
  C   C302      1.0  0.25934  0.75927  0.84753  1.0000
  C   C303      1.0  0.23016  0.76399  0.84147  1.0000
  C   C304      1.0  0.21126  0.74073  0.84037  1.0000
  C   C305      1.0  0.22137  0.71295  0.84635  1.0000
  H   H518      1.0  0.29201  0.72813  0.85783  1.0000
  H   H519      1.0  0.27417  0.77712  0.84783  1.0000
  H   H520      1.0  0.18898  0.74400  0.83402  1.0000
  H   H521      1.0  0.20666  0.69510  0.84524  1.0000
  H   H522      1.0  0.25015  0.84856  0.72202  1.0000
  H   H523      1.0  0.22742  0.66569  0.71671  1.0000
  H   H524      1.0  0.04101  0.50357  0.53413  1.0000
  C   C306      1.0  0.07041  0.58970  0.57979  1.0000
  C   C307      1.0  0.09776  0.57822  0.57484  1.0000
  H   H525      1.0  0.00993  0.95579  0.62203  1.0000
  H   H526      1.0  0.03408  0.61027  0.55564  1.0000
  H   H527      1.0  0.06135  0.59033  0.60555  1.0000
  H   H528      1.0  0.20782  0.51294  0.82650  1.0000
  C   C308      1.0  0.02072  0.85458  0.72747  1.0000
  H   H529      1.0  0.12874  0.68692  0.93536  1.0000
  N   N17       1.0  0.21372  0.73958  0.95925  1.0000
  C   C309      1.0  0.23022  0.76364  0.94224  1.0000
  C   C310      1.0  0.23181  0.71285  0.95869  1.0000
  H   H530      1.0  0.19360  0.73142  0.90970  1.0000
  H   H531      1.0  0.12813  0.72543  0.93375  1.0000
  C   C311      1.0  0.21253  0.79084  0.93393  1.0000
  H   H532      1.0  0.23025  0.79306  0.76644  1.0000
  C   C312      1.0  0.26174  0.71470  0.97574  1.0000
  C   C313      1.0  0.23184  0.81683  0.92793  1.0000
  H   H533      1.0  0.18736  0.60582  0.76115  1.0000
  H   H534      1.0  0.23958  0.75630  0.91731  1.0000
  H   H535      1.0  0.24902  0.77003  0.95800  1.0000
  H   H536      1.0  0.24565  0.76243  0.01625  1.0000
  H   H537      1.0  0.23511  0.70581  0.93139  1.0000
  C   C314      1.0  0.06511  0.73204  0.90998  1.0000
  C   C315      1.0  0.14117  0.70624  0.92774  1.0000
  H   H538      1.0  0.28039  0.68030  0.94515  1.0000
  C   C316      1.0  0.30289  0.96587  0.84105  1.0000
  H   H539      1.0  0.08356  0.75760  0.73182  1.0000
  H   H540      1.0  0.19988  0.78743  0.90997  1.0000
  H   H541      1.0  0.19722  0.79578  0.95495  1.0000
  H   H542      1.0  0.25006  0.62009  0.82673  1.0000
  H   H543      1.0  0.01300  0.67778  0.78246  1.0000
  H   H544      1.0  0.27529  0.73115  0.96292  1.0000
  H   H545      1.0  0.25010  0.84480  0.76878  1.0000
  H   H546      1.0  0.17260  0.75232  0.93844  1.0000
  H   H547      1.0  0.21848  0.83552  0.92061  1.0000
  H   H548      1.0  0.24383  0.82215  0.95188  1.0000
  H   H549      1.0  0.24722  0.81266  0.90658  1.0000
  H   H550      1.0  0.15179  0.63787  0.87477  1.0000
  C   C317      1.0  0.20398  0.74649  0.99567  1.0000
  H   H551      1.0  0.18226  0.66132  0.88113  1.0000
  H   H552      1.0  0.31659  0.86901  0.84771  1.0000
  H   H553      1.0  0.29619  0.58461  0.84527  1.0000
  H   H554      1.0  0.24640  0.96919  0.79611  1.0000
  C   C318      1.0  0.08354  0.77918  0.71967  1.0000
  C   C319      1.0  0.18748  0.73379  0.93739  1.0000
  H   H555      1.0  0.13038  0.56880  0.53708  1.0000
  C   C320      1.0  0.16945  0.70713  0.94767  1.0000
  H   H556      1.0  0.23875  0.62913  0.71191  1.0000
  H   H557      1.0  0.01764  0.83771  0.84441  1.0000
  N   N18       1.0  0.04966  0.85311  0.74477  1.0000
  C   C321      1.0  0.04714  0.84744  0.78319  1.0000
  C   C322      1.0  0.06843  0.83083  0.72779  1.0000
  C   C323      1.0  0.06426  0.88180  0.74023  1.0000
  H   H558      1.0  0.17379  0.51685  0.80441  1.0000
  H   H559      1.0  0.07657  0.73457  0.88495  1.0000
  H   H560      1.0  0.03444  0.70223  0.89003  1.0000
  C   C324      1.0  0.07106  0.89100  0.70237  1.0000
  H   H561      1.0  0.20027  0.94642  0.86941  1.0000
  H   H562      1.0  0.25969  0.71937  0.00367  1.0000
  C   C325      1.0  0.00107  0.82809  0.73191  1.0000
  H   H563      1.0  0.07837  0.79986  0.76860  1.0000
  C   C326      1.0  0.08892  0.91844  0.70137  1.0000
  H   H564      1.0  0.06890  0.84706  0.79503  1.0000
  H   H565      1.0  0.31271  0.70671  0.75130  1.0000
  H   H566      1.0  0.02954  0.75140  0.85975  1.0000
  H   H567      1.0  0.09150  0.83719  0.72942  1.0000
  H   H568      1.0  0.08479  0.88210  0.75500  1.0000
  H   H569      1.0  0.05098  0.89923  0.75113  1.0000
  H   H570      1.0  0.28308  0.85242  0.74595  1.0000
  H   H571      1.0  0.20365  0.65482  0.77131  1.0000
  H   H572      1.0  0.28324  0.97701  0.84983  1.0000
  H   H573      1.0  0.99957  0.72527  0.80411  1.0000
  H   H574      1.0  0.01820  0.76563  0.89971  1.0000
  H   H575      1.0  0.00888  0.87378  0.73629  1.0000
  H   H576      1.0  0.05096  0.89525  0.68794  1.0000
  H   H577      1.0  0.08333  0.87443  0.68839  1.0000
  H   H578      1.0  0.19737  0.55030  0.76188  1.0000
  H   H579      1.0  0.28137  0.80241  0.76418  1.0000
  H   H580      1.0  0.18473  0.59594  0.87581  1.0000
  H   H581      1.0  0.28343  0.90883  0.83659  1.0000
  H   H582      1.0  0.25058  0.70971  0.77806  1.0000
  H   H583      1.0  0.02423  0.71914  0.92987  1.0000
  H   H584      1.0  0.17313  0.62400  0.81943  1.0000
  H   H585      1.0  0.19066  0.86236  0.01857  1.0000
  C   C327      1.0  0.14189  0.81032  0.99923  1.0000
  H   H586      1.0  0.10612  0.78619  0.71604  1.0000
  H   H587      1.0  0.09310  0.92484  0.67411  1.0000
  H   H588      1.0  0.07741  0.93618  0.71424  1.0000
  H   H589      1.0  0.10989  0.91512  0.71443  1.0000
  H   H590      1.0  0.28827  0.75217  0.73657  1.0000
  H   H591      1.0  0.26545  0.93253  0.68321  1.0000
  C   C328      1.0  0.27759  0.68626  0.97274  1.0000
  H   H592      1.0  0.09463  0.97875  0.76603  1.0000
  C   C329      1.0  0.23679  0.93760  0.83630  1.0000
  C   C330      1.0  0.24876  0.94568  0.79997  1.0000
  C   C331      1.0  0.28559  0.90801  0.80806  1.0000
  H   H593      1.0  0.00959  0.81009  0.71649  1.0000
  C   C332      1.0  0.28144  0.93305  0.75273  1.0000
  H   H594      1.0  0.21260  0.97682  0.84461  1.0000
  H   H595      1.0  0.23330  0.93558  0.78166  1.0000
  C   C333      1.0  0.20886  0.95338  0.84388  1.0000
  C   C334      1.0  0.26951  0.95799  0.73013  1.0000
  H   H596      1.0  0.20568  0.64322  0.82638  1.0000
  H   H597      1.0  0.23417  0.57742  0.87063  1.0000
  H   H598      1.0  0.18207  0.75609  0.99542  1.0000
  H   H599      1.0  0.29916  0.68818  0.98465  1.0000
  C   C335      1.0  0.27542  0.95288  0.69177  1.0000
  H   H600      1.0  0.26941  0.89193  0.79950  1.0000
  C   C336      1.0  0.02628  0.85973  0.84199  1.0000
  H   H601      1.0  0.06167  0.49549  0.59387  1.0000
  C   C337      1.0  0.30056  0.95924  0.80203  1.0000
  H   H602      1.0  0.27004  0.91324  0.74445  1.0000
  H   H603      1.0  0.30427  0.93023  0.74491  1.0000
  C   C338      1.0  0.00075  0.50760  0.72967  1.0000
  C   C339      1.0  0.02456  0.98922  0.72468  1.0000
  H   H604      1.0  0.07098  0.52647  0.52851  1.0000
  H   H605      1.0  0.25636  0.59224  0.79742  1.0000
  H   H606      1.0  0.02701  0.70917  0.83040  1.0000
  H   H607      1.0  0.02928  0.62841  0.72422  1.0000
  H   H608      1.0  0.02317  0.85774  0.69910  1.0000
  H   H609      1.0  0.06614  0.75254  0.92434  1.0000
  N   N19       1.0  0.27913  0.93663  0.79154  1.0000
  H   H610      1.0  0.19650  0.56323  0.83931  1.0000
  H   H611      1.0  0.19248  0.94856  0.82389  1.0000
  H   H612      1.0  0.24079  0.64392  0.77370  1.0000
  H   H613      1.0  0.29561  0.97996  0.78927  1.0000
  C   C340      1.0  0.32396  0.75433  0.01176  1.0000
  H   H614      1.0  0.22282  0.59351  0.75501  1.0000
  H   H615      1.0  0.26119  0.70165  0.73486  1.0000
  H   H616      1.0  0.26573  0.66894  0.98641  1.0000
  H   H617      1.0  0.24594  0.96009  0.73315  1.0000
  C   C341      1.0  0.03401  0.72282  0.90405  1.0000
  H   H618      1.0  0.23206  0.91429  0.83733  1.0000
  H   H619      1.0  0.32234  0.95371  0.79245  1.0000
  H   H620      1.0  0.16441  0.70718  0.97574  1.0000
  H   H621      1.0  0.14519  0.70545  0.89942  1.0000
  H   H622      1.0  0.04772  0.86064  0.85444  1.0000
  H   H623      1.0  0.18121  0.68724  0.94142  1.0000
  H   H624      1.0  0.30182  0.71479  0.79509  1.0000
  H   H625      1.0  0.14126  0.74773  0.72633  1.0000
  H   H626      1.0  0.29396  0.68032  0.77706  1.0000
  C   C342      1.0  0.00397  0.70813  0.82328  1.0000
  H   H627      1.0  0.03761  0.89056  0.80349  1.0000
  H   H628      1.0  0.20098  0.63814  0.71021  1.0000
  C   C343      1.0  0.02837  0.86870  0.80399  1.0000
  H   H629      1.0  0.06355  0.82950  0.69962  1.0000
  H   H630      1.0  0.26965  0.75687  0.77624  1.0000
  N   N20       1.0  0.24264  0.75980  0.73070  1.0000
  C   C344      1.0  0.21516  0.74503  0.74147  1.0000
  C   C345      1.0  0.26779  0.74703  0.75015  1.0000
  C   C346      1.0  0.24005  0.79099  0.74041  1.0000
  C   C347      1.0  0.24733  0.75868  0.69210  1.0000
  C   C348      1.0  0.24986  0.72869  0.67586  1.0000
  C   C349      1.0  0.18712  0.75627  0.72478  1.0000
  C   C350      1.0  0.26839  0.80863  0.74131  1.0000
  H   H631      1.0  0.07629  0.71544  0.92549  1.0000
  H   H632      1.0  0.17246  0.57412  0.80684  1.0000
  C   C351      1.0  0.24968  0.73051  0.63635  1.0000
  C   C352      1.0  0.16105  0.74050  0.73964  1.0000
  H   H633      1.0  0.21575  0.72182  0.73602  1.0000
  H   H634      1.0  0.20387  0.50130  0.78227  1.0000
  H   H635      1.0  0.22518  0.80230  0.72249  1.0000
  H   H636      1.0  0.23000  0.77045  0.67833  1.0000
  H   H637      1.0  0.26737  0.77022  0.68494  1.0000
  H   H638      1.0  0.23189  0.71452  0.68368  1.0000
  H   H639      1.0  0.27059  0.71888  0.68346  1.0000
  H   H640      1.0  0.18400  0.77934  0.72992  1.0000
  H   H641      1.0  0.18737  0.75278  0.69640  1.0000
  H   H642      1.0  0.28154  0.80546  0.71777  1.0000
  H   H643      1.0  0.09518  0.51310  0.58346  1.0000
  C   C353      1.0  0.26686  0.71437  0.75778  1.0000
  H   H644      1.0  0.25199  0.94239  0.85743  1.0000
  H   H645      1.0  0.26627  0.97066  0.67618  1.0000
  H   H646      1.0  0.22058  0.69495  0.97212  1.0000
  H   H647      1.0  0.22904  0.73946  0.62691  1.0000
  H   H648      1.0  0.26768  0.74411  0.62691  1.0000
  H   H649      1.0  0.25222  0.70878  0.62536  1.0000
  H   H650      1.0  0.16299  0.71704  0.73600  1.0000
  H   H651      1.0  0.15878  0.74510  0.76769  1.0000
  H   H652      1.0  0.17266  0.63559  0.91397  1.0000
  C   C354      1.0  0.06758  0.80007  0.74298  1.0000
  C   C355      1.0  0.29566  0.70350  0.77105  1.0000
  H   H653      1.0  0.00707  0.66001  0.72141  1.0000
  H   H654      1.0  0.27946  0.97872  0.73696  1.0000
  H   H655      1.0  0.04547  0.79194  0.74657  1.0000
  H   H656      1.0  0.31895  0.62922  0.99515  1.0000
  H   H657      1.0  0.03828  0.82589  0.78861  1.0000
  H   H658      1.0  0.28470  0.56868  0.88558  1.0000
  H   H659      1.0  0.25115  0.55513  0.83946  1.0000
  H   H660      1.0  0.29891  0.95214  0.68686  1.0000
  C   C356      1.0  0.19748  0.51782  0.80129  1.0000
  C   C357      1.0  0.08321  0.49263  0.58209  1.0000
  C   C358      1.0  0.26240  0.84058  0.74471  1.0000
  C   C359      1.0  0.05501  0.60099  0.55144  1.0000
  H   H661      1.0  0.21506  0.61996  0.88083  1.0000
  H   H662      1.0  0.27816  0.60602  0.87741  1.0000
  H   H663      1.0  0.23036  0.54760  0.78563  1.0000
  N   N21       1.0  0.21123  0.59964  0.80880  1.0000
  C   C360      1.0  0.19582  0.57135  0.81238  1.0000
  C   C361      1.0  0.19538  0.62190  0.82945  1.0000
  C   C362      1.0  0.20968  0.60821  0.77104  1.0000
  C   C363      1.0  0.24238  0.59835  0.81956  1.0000
  C   C364      1.0  0.25005  0.57730  0.84942  1.0000
  C   C365      1.0  0.20666  0.54731  0.78817  1.0000
  C   C366      1.0  0.21960  0.63905  0.76195  1.0000
  C   C367      1.0  0.19350  0.61726  0.86905  1.0000
  C   C368      1.0  0.17382  0.63941  0.88562  1.0000
  C   C369      1.0  0.27911  0.58460  0.86527  1.0000
  H   H664      1.0  0.07285  0.77762  0.69407  1.0000
  C   C370      1.0  0.22185  0.64317  0.72277  1.0000
  C   C371      1.0  0.01721  0.74600  0.88365  1.0000
  H   H665      1.0  0.30618  0.94625  0.85669  1.0000
  C   C372      1.0  0.99881  0.67952  0.80539  1.0000
  H   H666      1.0  0.31787  0.53172  0.85205  1.0000
  H   H667      1.0  0.05054  0.98388  0.84597  1.0000
  H   H668      1.0  0.00289  0.91382  0.67571  1.0000
  C   C373      1.0  0.31965  0.86676  0.81936  1.0000
  H   H669      1.0  0.31920  0.89180  0.77288  1.0000
  H   H670      1.0  0.00369  0.66148  0.82323  1.0000
  H   H671      1.0  0.01181  0.87454  0.85594  1.0000
  H   H672      1.0  0.00621  0.86953  0.79359  1.0000
  C   C374      1.0  0.01155  0.63887  0.70975  1.0000
  H   H673      1.0  0.01863  0.64224  0.68258  1.0000
  H   H674      1.0  0.99899  0.82138  0.75931  1.0000
  S   S78       1.0  0.15047  0.98881  0.73451  1.0000
  H   H675      1.0  0.30236  0.76185  0.00391  1.0000
  C   C375      1.0  0.06296  0.50453  0.52264  1.0000
  C   C376      1.0  0.31579  0.89549  0.80090  1.0000
  H   H676      1.0  0.20155  0.72650  0.01119  1.0000
  H   H677      1.0  0.31896  0.54509  0.76487  1.0000
  H   H678      1.0  0.29371  0.49708  0.81247  1.0000
  C   C377      1.0  0.22257  0.76775  0.01684  1.0000
  H   H679      1.0  0.05144  0.98641  0.79924  1.0000
  H   H680      1.0  0.30423  0.85069  0.80926  1.0000
  C   C378      1.0  0.32679  0.63415  0.02078  1.0000
  H   H681      1.0  0.99378  0.59751  0.75685  1.0000
  Fe  Fe41      1.0  0.44464  0.35722  0.34925  1.0000
  S   S79       1.0  0.41148  0.38329  0.32098  1.0000
  S   S80       1.0  0.47744  0.33021  0.32055  1.0000
  Fe  Fe42      1.0  0.42084  0.37373  0.42137  1.0000
  S   S81       1.0  0.38597  0.40086  0.39834  1.0000
  S   S82       1.0  0.43469  0.37005  0.47787  1.0000
  Fe  Fe43      1.0  0.37988  0.36552  0.35950  1.0000
  C   C379      1.0  0.65592  0.35166  0.04737  1.0000
  Fe  Fe44      1.0  0.42031  0.41620  0.36172  1.0000
  S   S83       1.0  0.42513  0.46319  0.34997  1.0000
  S   S84       1.0  0.41256  0.33693  0.38530  1.0000
  S   S85       1.0  0.45556  0.39141  0.38711  1.0000
  S   S86       1.0  0.34439  0.15525  0.18355  1.0000
  H   H682      1.0  0.42479  0.01053  0.19998  1.0000
  Fe  Fe45      1.0  0.34751  0.11952  0.22290  1.0000
  S   S87       1.0  0.38990  0.09800  0.23733  1.0000
  C   C380      1.0  0.38668  0.39268  0.51050  1.0000
  C   C381      1.0  0.56803  0.01053  0.46724  1.0000
  N   N22       1.0  0.54207  0.47788  0.25892  1.0000
  C   C382      1.0  0.35707  0.48897  0.26088  1.0000
  H   H683      1.0  0.34744  0.47499  0.31229  1.0000
  H   H684      1.0  0.61349  0.24362  0.21068  1.0000
  H   H685      1.0  0.52352  0.44639  0.29339  1.0000
  C   C383      1.0  0.45732  0.12519  0.31810  1.0000
  C   C384      1.0  0.43046  0.13882  0.31694  1.0000
  C   C385      1.0  0.40949  0.13069  0.29255  1.0000
  C   C386      1.0  0.41533  0.10906  0.26877  1.0000
  C   C387      1.0  0.44208  0.09530  0.27016  1.0000
  C   C388      1.0  0.46293  0.10317  0.29477  1.0000
  H   H686      1.0  0.42583  0.15574  0.33502  1.0000
  H   H687      1.0  0.38879  0.14106  0.29220  1.0000
  H   H688      1.0  0.44689  0.07872  0.25173  1.0000
  H   H689      1.0  0.48351  0.09255  0.29528  1.0000
  H   H690      1.0  0.48886  0.40628  0.27892  1.0000
  C   C389      1.0  0.46068  0.47545  0.35362  1.0000
  H   H691      1.0  0.40238  0.27243  0.31644  1.0000
  H   H692      1.0  0.37698  0.39404  0.48513  1.0000
  H   H693      1.0  0.33009  0.22576  0.05011  1.0000
  C   C390      1.0  0.46740  0.00729  0.35802  1.0000
  C   C391      1.0  0.49563  0.01757  0.36123  1.0000
  C   C392      1.0  0.48363  0.45631  0.35389  1.0000
  H   H694      1.0  0.44986  0.02221  0.35521  1.0000
  H   H695      1.0  0.49972  0.04031  0.36050  1.0000
  H   H696      1.0  0.48003  0.43405  0.34844  1.0000
  S   S88       1.0  0.62877  0.33176  0.20520  1.0000
  H   H697      1.0  0.41101  0.23408  0.25170  1.0000
  Fe  Fe46      1.0  0.63289  0.36591  0.24568  1.0000
  S   S89       1.0  0.59721  0.38637  0.27742  1.0000
  H   H698      1.0  0.36377  0.03554  0.33652  1.0000
  Fe  Fe47      1.0  0.56537  0.10727  0.42349  1.0000
  S   S90       1.0  0.59696  0.07983  0.39474  1.0000
  S   S91       1.0  0.56336  0.12222  0.47959  1.0000
  Fe  Fe48      1.0  0.52539  0.11378  0.36001  1.0000
  S   S92       1.0  0.55357  0.08680  0.32615  1.0000
  S   S93       1.0  0.48339  0.13691  0.34843  1.0000
  Fe  Fe49      1.0  0.55743  0.05851  0.37308  1.0000
  S   S94       1.0  0.55383  0.01060  0.37059  1.0000
  Fe  Fe50      1.0  0.59124  0.11019  0.34964  1.0000
  S   S95       1.0  0.62510  0.13106  0.31447  1.0000
  S   S96       1.0  0.52653  0.08345  0.40514  1.0000
  S   S97       1.0  0.56255  0.13959  0.38020  1.0000
  C   C393      1.0  0.48959  0.44156  0.51020  1.0000
  H   H699      1.0  0.53007  0.40876  0.47862  1.0000
  H   H700      1.0  0.60483  0.07571  0.48736  1.0000
  H   H701      1.0  0.48703  0.45111  0.24507  1.0000
  C   C394      1.0  0.51146  0.46600  0.36118  1.0000
  H   H702      1.0  0.52901  0.45093  0.36238  1.0000
  H   H703      1.0  0.60968  0.03052  0.32954  1.0000
  C   C395      1.0  0.43708  0.44940  0.45911  1.0000
  C   C396      1.0  0.62281  0.30292  0.05937  1.0000
  C   C397      1.0  0.63233  0.31955  0.08753  1.0000
  H   H704      1.0  0.60951  0.28432  0.06409  1.0000
  H   H705      1.0  0.61926  0.26038  0.13367  1.0000
  C   C398      1.0  0.51118  0.34534  0.30947  1.0000
  C   C399      1.0  0.52056  0.37090  0.32424  1.0000
  C   C400      1.0  0.54728  0.38268  0.31484  1.0000
  C   C401      1.0  0.56490  0.36921  0.29039  1.0000
  C   C402      1.0  0.55577  0.34333  0.27600  1.0000
  C   C403      1.0  0.52902  0.33145  0.28556  1.0000
  H   H706      1.0  0.50711  0.38179  0.34264  1.0000
  H   H707      1.0  0.55419  0.40246  0.32649  1.0000
  H   H708      1.0  0.56908  0.33277  0.25708  1.0000
  H   H709      1.0  0.52196  0.31167  0.27396  1.0000
  C   C404      1.0  0.51840  0.99840  0.36514  1.0000
  N   N23       1.0  0.50777  0.23595  0.36380  1.0000
  C   C405      1.0  0.53853  0.24631  0.36370  1.0000
  C   C406      1.0  0.50474  0.20914  0.38576  1.0000
  C   C407      1.0  0.50017  0.22822  0.32699  1.0000
  C   C408      1.0  0.48716  0.25870  0.37560  1.0000
  C   C409      1.0  0.49325  0.27224  0.41131  1.0000
  C   C410      1.0  0.54486  0.27365  0.34196  1.0000
  C   C411      1.0  0.46972  0.21537  0.32142  1.0000
  C   C412      1.0  0.52426  0.20624  0.41814  1.0000
  C   C413      1.0  0.51467  0.18125  0.44111  1.0000
  C   C414      1.0  0.47335  0.29750  0.41796  1.0000
  C   C415      1.0  0.57574  0.28385  0.34714  1.0000
  C   C416      1.0  0.46665  0.20324  0.28498  1.0000
  H   H710      1.0  0.55284  0.22903  0.35406  1.0000
  H   H711      1.0  0.54615  0.25082  0.39027  1.0000
  H   H712      1.0  0.48208  0.20624  0.39430  1.0000
  H   H713      1.0  0.50968  0.18980  0.37013  1.0000
  H   H714      1.0  0.51616  0.21273  0.31666  1.0000
  H   H715      1.0  0.50121  0.24730  0.30974  1.0000
  H   H716      1.0  0.48580  0.27616  0.35601  1.0000
  H   H717      1.0  0.46497  0.24994  0.37712  1.0000
  H   H718      1.0  0.51553  0.28038  0.41328  1.0000
  H   H719      1.0  0.48920  0.25634  0.43212  1.0000
  H   H720      1.0  0.54212  0.26950  0.31393  1.0000
  H   H721      1.0  0.53060  0.29149  0.34948  1.0000
  H   H722      1.0  0.45315  0.23215  0.32463  1.0000
  H   H723      1.0  0.46495  0.19780  0.33988  1.0000
  H   H724      1.0  0.54671  0.20203  0.40991  1.0000
  H   H725      1.0  0.52437  0.22573  0.43416  1.0000
  H   H726      1.0  0.51414  0.16103  0.42619  1.0000
  H   H727      1.0  0.52995  0.17857  0.46293  1.0000
  H   H728      1.0  0.49299  0.18529  0.45192  1.0000
  H   H729      1.0  0.47694  0.31464  0.39839  1.0000
  H   H730      1.0  0.45055  0.29055  0.41711  1.0000
  H   H731      1.0  0.47770  0.30657  0.44395  1.0000
  H   H732      1.0  0.57944  0.28986  0.37455  1.0000
  H   H733      1.0  0.57982  0.30301  0.33069  1.0000
  H   H734      1.0  0.44476  0.19431  0.28161  1.0000
  H   H735      1.0  0.47022  0.22016  0.26517  1.0000
  H   H736      1.0  0.48219  0.18560  0.28096  1.0000
  C   C417      1.0  0.35400  0.17007  0.03788  1.0000
  C   C418      1.0  0.38137  0.28251  0.31034  1.0000
  H   H737      1.0  0.56324  0.45682  0.15713  1.0000
  H   H738      1.0  0.64094  0.21622  0.03137  1.0000
  H   H739      1.0  0.33654  0.05459  0.31256  1.0000
  H   H740      1.0  0.33258  0.39654  0.30406  1.0000
  H   H741      1.0  0.40202  0.00976  0.30564  1.0000
  H   H742      1.0  0.57940  0.03009  0.45813  1.0000
  H   H743      1.0  0.38661  0.26021  0.37686  1.0000
  C   C419      1.0  0.35527  0.01400  0.44801  1.0000
  C   C420      1.0  0.40915  0.46629  0.45787  1.0000
  H   H744      1.0  0.36336  0.31636  0.21147  1.0000
  H   H745      1.0  0.35075  0.01165  0.28102  1.0000
  N   N24       1.0  0.37599  0.28274  0.27181  1.0000
  H   H746      1.0  0.63783  0.27663  0.16952  1.0000
  C   C421      1.0  0.35943  0.04806  0.31267  1.0000
  H   H747      1.0  0.48107  0.41924  0.50936  1.0000
  H   H748      1.0  0.51514  0.39202  0.24896  1.0000
  H   H749      1.0  0.54417  0.06085  0.49124  1.0000
  H   H750      1.0  0.45877  0.11469  0.46017  1.0000
  C   C422      1.0  0.56540  0.48585  0.28438  1.0000
  C   C423      1.0  0.53107  0.44800  0.26611  1.0000
  H   H751      1.0  0.37368  0.20157  0.22629  1.0000
  H   H752      1.0  0.41312  0.04129  0.22222  1.0000
  H   H753      1.0  0.36256  0.02303  0.47311  1.0000
  H   H754      1.0  0.46015  0.12054  0.50628  1.0000
  C   C424      1.0  0.60477  0.24748  0.18430  1.0000
  H   H755      1.0  0.33677  0.27765  0.32897  1.0000
  C   C425      1.0  0.55256  0.48126  0.22219  1.0000
  C   C426      1.0  0.40740  0.01856  0.21715  1.0000
  H   H756      1.0  0.51784  0.48224  0.44320  1.0000
  H   H757      1.0  0.56871  0.02099  0.52102  1.0000
  H   H758      1.0  0.50607  0.01839  0.26894  1.0000
  H   H759      1.0  0.59731  0.46725  0.22392  1.0000
  H   H760      1.0  0.35425  0.32337  0.27721  1.0000
  H   H761      1.0  0.36529  0.29242  0.37968  1.0000
  N   N25       1.0  0.49094  0.45443  0.47420  1.0000
  H   H762      1.0  0.58868  0.26488  0.18587  1.0000
  H   H763      1.0  0.34684  0.16604  0.09315  1.0000
  C   C427      1.0  0.49611  0.43059  0.44874  1.0000
  H   H764      1.0  0.59417  0.44877  0.27570  1.0000
  H   H765      1.0  0.36116  0.04384  0.25797  1.0000
  H   H766      1.0  0.33457  0.48727  0.25161  1.0000
  C   C428      1.0  0.52543  0.41511  0.45149  1.0000
  C   C429      1.0  0.62552  0.20960  0.30055  1.0000
  C   C430      1.0  0.51560  0.47532  0.47078  1.0000
  H   H767      1.0  0.64131  0.20497  0.35240  1.0000
  H   H768      1.0  0.50908  0.37285  0.43779  1.0000
  C   C431      1.0  0.36529  0.26974  0.37137  1.0000
  H   H769      1.0  0.60408  0.48708  0.33903  1.0000
  H   H770      1.0  0.58409  0.99334  0.47112  1.0000
  H   H771      1.0  0.47703  0.02373  0.50119  1.0000
  H   H772      1.0  0.49407  0.43867  0.42175  1.0000
  H   H773      1.0  0.47937  0.41373  0.45175  1.0000
  H   H774      1.0  0.34883  0.25811  0.38678  1.0000
  H   H775      1.0  0.64603  0.03817  0.34243  1.0000
  C   C432      1.0  0.50630  0.43747  0.24244  1.0000
  C   C433      1.0  0.38010  0.01824  0.19401  1.0000
  H   H776      1.0  0.35063  0.03126  0.39528  1.0000
  C   C434      1.0  0.49697  0.40711  0.25190  1.0000
  H   H777      1.0  0.46667  0.48062  0.43839  1.0000
  H   H778      1.0  0.54297  0.42922  0.44192  1.0000
  H   H779      1.0  0.37098  0.18570  0.04067  1.0000
  H   H780      1.0  0.40617  0.00159  0.46996  1.0000
  C   C435      1.0  0.58579  0.46187  0.29706  1.0000
  H   H781      1.0  0.41038  0.04036  0.28070  1.0000
  C   C436      1.0  0.62987  0.31052  0.02512  1.0000
  H   H782      1.0  0.49070  0.07357  0.46539  1.0000
  H   H783      1.0  0.43877  0.43760  0.43437  1.0000
  H   H784      1.0  0.60730  0.19483  0.30577  1.0000
  H   H785      1.0  0.59115  0.26694  0.33966  1.0000
  H   H786      1.0  0.45688  0.31765  0.24677  1.0000
  H   H787      1.0  0.34492  0.44631  0.41719  1.0000
  H   H788      1.0  0.39605  0.22780  0.29405  1.0000
  H   H789      1.0  0.36040  0.02330  0.20860  1.0000
  C   C437      1.0  0.55221  0.01619  0.50115  1.0000
  C   C438      1.0  0.34877  0.48488  0.38602  1.0000
  C   C439      1.0  0.46012  0.01458  0.26094  1.0000
  H   H790      1.0  0.38438  0.06188  0.17437  1.0000
  H   H791      1.0  0.42152  0.27948  0.26192  1.0000
  H   H792      1.0  0.38332  0.30479  0.32005  1.0000
  H   H793      1.0  0.62626  0.31386  0.11368  1.0000
  H   H794      1.0  0.53444  0.47899  0.20366  1.0000
  H   H795      1.0  0.36839  0.46881  0.25457  1.0000
  H   H796      1.0  0.59387  0.22782  0.17503  1.0000
  H   H797      1.0  0.57214  0.43838  0.21655  1.0000
  H   H798      1.0  0.58842  0.48576  0.16463  1.0000
  C   C440      1.0  0.36846  0.25334  0.25893  1.0000
  H   H799      1.0  0.55269  0.00355  0.44696  1.0000
  H   H800      1.0  0.52241  0.39387  0.40163  1.0000
  H   H801      1.0  0.63273  0.20633  0.27345  1.0000
  H   H802      1.0  0.41062  0.00114  0.42454  1.0000
  H   H803      1.0  0.62492  0.45651  0.32656  1.0000
  H   H804      1.0  0.62182  0.02155  0.37276  1.0000
  C   C441      1.0  0.48981  0.00125  0.26535  1.0000
  C   C442      1.0  0.43885  0.33213  0.24005  1.0000
  H   H805      1.0  0.40122  0.28952  0.22527  1.0000
  H   H806      1.0  0.39675  0.18425  0.25706  1.0000
  H   H807      1.0  0.35625  0.24458  0.32674  1.0000
  C   C443      1.0  0.57960  0.10578  0.51611  1.0000
  H   H808      1.0  0.43462  0.33101  0.21181  1.0000
  C   C444      1.0  0.62880  0.25634  0.15953  1.0000
  H   H809      1.0  0.36078  0.19392  0.26953  1.0000
  H   H810      1.0  0.36307  0.03863  0.14779  1.0000
  H   H811      1.0  0.44542  0.35430  0.24656  1.0000
  H   H812      1.0  0.45772  0.48616  0.48221  1.0000
  H   H813      1.0  0.49211  0.12503  0.48004  1.0000
  C   C445      1.0  0.47221  0.11219  0.48373  1.0000
  H   H814      1.0  0.39487  0.33938  0.25310  1.0000
  C   C446      1.0  0.39738  0.02038  0.28041  1.0000
  H   H815      1.0  0.45632  0.02834  0.28378  1.0000
  H   H816      1.0  0.45920  0.06853  0.49153  1.0000
  C   C447      1.0  0.38258  0.03977  0.16424  1.0000
  C   C448      1.0  0.65002  0.20324  0.32576  1.0000
  H   H817      1.0  0.36186  0.47415  0.36614  1.0000
  C   C449      1.0  0.37977  0.20061  0.25405  1.0000
  H   H818      1.0  0.61797  0.23193  0.30342  1.0000
  H   H819      1.0  0.53623  0.46494  0.47776  1.0000
  C   C450      1.0  0.39089  0.22964  0.26613  1.0000
  H   H820      1.0  0.34745  0.24635  0.26970  1.0000
  C   C451      1.0  0.62815  0.02269  0.34507  1.0000
  H   H821      1.0  0.60057  0.44922  0.16466  1.0000
  H   H822      1.0  0.38434  0.04008  0.41534  1.0000
  C   C452      1.0  0.34874  0.06606  0.43070  1.0000
  H   H823      1.0  0.54714  0.37765  0.43156  1.0000
  Fe  Fe51      1.0  0.66007  0.35773  0.17362  1.0000
  C   C453      1.0  0.35806  0.26763  0.33291  1.0000
  H   H824      1.0  0.43556  0.43353  0.48038  1.0000
  H   H825      1.0  0.51859  0.03735  0.47287  1.0000
  H   H826      1.0  0.41689  0.32699  0.28838  1.0000
  C   C454      1.0  0.35108  0.30239  0.26436  1.0000
  C   C455      1.0  0.41194  0.32410  0.26058  1.0000
  H   H827      1.0  0.36530  0.25367  0.23042  1.0000
  C   C456      1.0  0.36572  0.03011  0.28068  1.0000
  H   H828      1.0  0.54840  0.43191  0.26416  1.0000
  H   H829      1.0  0.51313  0.43729  0.21495  1.0000
  C   C457      1.0  0.34437  0.30801  0.22555  1.0000
  H   H830      1.0  0.57409  0.44748  0.31516  1.0000
  H   H831      1.0  0.37292  0.06772  0.31260  1.0000
  C   C458      1.0  0.52593  0.38822  0.42924  1.0000
  H   H832      1.0  0.39084  0.45130  0.45471  1.0000
  H   H833      1.0  0.46079  0.02834  0.23750  1.0000
  C   C459      1.0  0.40293  0.29274  0.25371  1.0000
  C   C460      1.0  0.64875  0.34419  0.08159  1.0000
  H   H834      1.0  0.40940  0.48130  0.43554  1.0000
  C   C461      1.0  0.33067  0.46209  0.40438  1.0000
  C   C462      1.0  0.46355  0.46923  0.46360  1.0000
  C   C463      1.0  0.53095  0.04152  0.49698  1.0000
  H   H835      1.0  0.47940  0.40014  0.23446  1.0000
  H   H836      1.0  0.37723  0.99675  0.18239  1.0000
  C   C464      1.0  0.47961  0.08067  0.48907  1.0000
  C   C465      1.0  0.57705  0.46110  0.21081  1.0000
  C   C466      1.0  0.36103  0.03720  0.42001  1.0000
  S   S98       1.0  0.65988  0.36700  0.11567  1.0000
  S   S99       1.0  0.33751  0.34399  0.34537  1.0000
  H   H837      1.0  0.64123  0.21238  0.15486  1.0000
  C   C467      1.0  0.61142  0.47424  0.31664  1.0000
  C   C468      1.0  0.59901  0.08325  0.51281  1.0000
  N   N26       1.0  0.40649  0.00162  0.25076  1.0000
  C   C469      1.0  0.58255  0.46350  0.17191  1.0000
  C   C470      1.0  0.41448  0.38192  0.51405  1.0000
  H   H838      1.0  0.54107  0.99621  0.50877  1.0000
  H   H839      1.0  0.62462  0.48791  0.29924  1.0000
  H   H840      1.0  0.40161  0.03511  0.14795  1.0000
  H   H841      1.0  0.40598  0.47831  0.48226  1.0000
  C   C471      1.0  0.34032  0.15898  0.06772  1.0000
  H   H842      1.0  0.65695  0.18113  0.32115  1.0000
  H   H843      1.0  0.35915  0.07374  0.45479  1.0000
  H   H844      1.0  0.33160  0.01161  0.45081  1.0000
  H   H845      1.0  0.64081  0.22062  0.09665  1.0000
  H   H846      1.0  0.33698  0.28812  0.21278  1.0000
  C   C472      1.0  0.65251  0.23319  0.15781  1.0000
  H   H847      1.0  0.64367  0.99592  0.30467  1.0000
  C   C473      1.0  0.63793  0.99350  0.33235  1.0000
  H   H848      1.0  0.65182  0.25576  0.08675  1.0000
  H   H849      1.0  0.35276  0.08205  0.40987  1.0000
  H   H850      1.0  0.33098  0.29367  0.27589  1.0000
  C   C474      1.0  0.65937  0.11939  0.29984  1.0000
  H   H851      1.0  0.51164  0.43944  0.52102  1.0000
  H   H852      1.0  0.32706  0.35081  0.23280  1.0000
  C   C475      1.0  0.66022  0.23454  0.09496  1.0000
  Fe  Fe52      1.0  0.37213  0.19207  0.83860  1.0000
  H   H853      1.0  0.45218  0.39550  0.81759  1.0000
  S   S100      1.0  0.39829  0.22540  0.80870  1.0000
  Fe  Fe53      1.0  0.35521  0.16729  0.91047  1.0000
  S   S101      1.0  0.36255  0.17727  0.96769  1.0000
  Fe  Fe54      1.0  0.36464  0.12683  0.84882  1.0000
  S   S102      1.0  0.38554  0.08388  0.83703  1.0000
  S   S103      1.0  0.39260  0.16001  0.87453  1.0000
  H   H854      1.0  0.55747  0.13289  0.55220  1.0000
  Fe  Fe55      1.0  0.37709  0.41222  0.66575  1.0000
  S   S104      1.0  0.40511  0.38124  0.69483  1.0000
  S   S105      1.0  0.36195  0.40879  0.60973  1.0000
  Fe  Fe56      1.0  0.37010  0.45214  0.72933  1.0000
  S   S106      1.0  0.39765  0.42409  0.76300  1.0000
  C   C476      1.0  0.64668  0.33488  0.01930  1.0000
  Fe  Fe57      1.0  0.42569  0.42114  0.71585  1.0000
  S   S107      1.0  0.47361  0.42507  0.71826  1.0000
  Fe  Fe58      1.0  0.37458  0.38640  0.73947  1.0000
  S   S108      1.0  0.35466  0.35179  0.77419  1.0000
  S   S109      1.0  0.39995  0.45168  0.68375  1.0000
  H   H855      1.0  0.62182  0.00887  0.88865  1.0000
  C   C477      1.0  0.48545  0.46046  0.72355  1.0000
  H   H856      1.0  0.53829  0.37448  0.75331  1.0000
  C   C478      1.0  0.63786  0.02122  0.83765  1.0000
  H   H857      1.0  0.45730  0.02588  0.73774  1.0000
  C   C479      1.0  0.46530  0.02523  0.55551  1.0000
  C   C480      1.0  0.37324  0.05687  0.80834  1.0000
  C   C481      1.0  0.34855  0.06018  0.78811  1.0000
  H   H858      1.0  0.55657  0.05979  0.62169  1.0000
  C   C482      1.0  0.35583  0.01288  0.76254  1.0000
  C   C483      1.0  0.38054  0.00964  0.78267  1.0000
  C   C484      1.0  0.38904  0.03141  0.80559  1.0000
  C   C485      1.0  0.33978  0.03817  0.76555  1.0000
  H   H859      1.0  0.47144  0.42081  0.57341  1.0000
  H   H860      1.0  0.40795  0.02837  0.82135  1.0000
  C   C486      1.0  0.38595  0.26050  0.79925  1.0000
  C   C487      1.0  0.40081  0.27743  0.77491  1.0000
  C   C488      1.0  0.39157  0.30538  0.76681  1.0000
  C   C489      1.0  0.36766  0.31691  0.78352  1.0000
  C   C490      1.0  0.35305  0.30008  0.80817  1.0000
  C   C491      1.0  0.36192  0.27196  0.81571  1.0000
  H   H861      1.0  0.41932  0.26875  0.76182  1.0000
  H   H862      1.0  0.40283  0.31793  0.74748  1.0000
  C   C492      1.0  0.50832  0.01099  0.85219  1.0000
  H   H863      1.0  0.46306  0.18602  0.74690  1.0000
  C   C493      1.0  0.47311  0.00952  0.74285  1.0000
  H   H864      1.0  0.49071  0.26908  0.77928  1.0000
  C   C494      1.0  0.42671  0.38034  0.54729  1.0000
  C   C495      1.0  0.41121  0.38901  0.57678  1.0000
  C   C496      1.0  0.38312  0.39913  0.57334  1.0000
  C   C497      1.0  0.37107  0.40108  0.54001  1.0000
  H   H865      1.0  0.42075  0.38734  0.60222  1.0000
  H   H866      1.0  0.52087  0.08692  0.58629  1.0000
  C   C498      1.0  0.44214  0.35876  0.78697  1.0000
  Fe  Fe59      1.0  0.62412  0.34002  0.87133  1.0000
  S   S110      1.0  0.59304  0.30754  0.89353  1.0000
  S   S111      1.0  0.60645  0.38432  0.85819  1.0000
  Fe  Fe60      1.0  0.62704  0.29865  0.93367  1.0000
  S   S112      1.0  0.61729  0.28904  0.99047  1.0000
  Fe  Fe61      1.0  0.61552  0.27512  0.86017  1.0000
  S   S113      1.0  0.59000  0.24354  0.82714  1.0000
  H   H867      1.0  0.43164  0.31912  0.88002  1.0000
  S   S114      1.0  0.64376  0.30837  0.83490  1.0000
  Fe  Fe62      1.0  0.61330  0.08914  0.74279  1.0000
  S   S115      1.0  0.64115  0.06115  0.70963  1.0000
  S   S116      1.0  0.63606  0.12196  0.77692  1.0000
  Fe  Fe63      1.0  0.56063  0.05542  0.72320  1.0000
  S   S117      1.0  0.58395  0.02502  0.68881  1.0000
  S   S118      1.0  0.51307  0.05101  0.73006  1.0000
  Fe  Fe64      1.0  0.61652  0.02376  0.73145  1.0000
  H   H868      1.0  0.54347  0.27640  0.77058  1.0000
  Fe  Fe65      1.0  0.60665  0.06429  0.66904  1.0000
  S   S119      1.0  0.62023  0.06364  0.61230  1.0000
  S   S120      1.0  0.59127  0.05131  0.76775  1.0000
  S   S121      1.0  0.58053  0.09529  0.70043  1.0000
  C   C499      1.0  0.61988  0.41223  0.83108  1.0000
  C   C500      1.0  0.60674  0.43924  0.83251  1.0000
  C   C501      1.0  0.61527  0.46165  0.81021  1.0000
  C   C502      1.0  0.63755  0.45753  0.78655  1.0000
  H   H869      1.0  0.45535  0.04665  0.55714  1.0000
  H   H870      1.0  0.49819  0.48166  0.84598  1.0000
  H   H871      1.0  0.58983  0.44291  0.85106  1.0000
  H   H872      1.0  0.33382  0.37624  0.84294  1.0000
  H   H873      1.0  0.43259  0.30820  0.83539  1.0000
  C   C503      1.0  0.60298  0.20967  0.81367  1.0000
  C   C504      1.0  0.58736  0.19396  0.78902  1.0000
  C   C505      1.0  0.59710  0.16710  0.77750  1.0000
  C   C506      1.0  0.62242  0.15546  0.79087  1.0000
  C   C507      1.0  0.63792  0.17112  0.81563  1.0000
  C   C508      1.0  0.62828  0.19802  0.82701  1.0000
  H   H874      1.0  0.56779  0.20278  0.77845  1.0000
  H   H875      1.0  0.58508  0.15548  0.75817  1.0000
  H   H876      1.0  0.48445  0.43017  0.83589  1.0000
  H   H877      1.0  0.64053  0.20979  0.84600  1.0000
  C   C509      1.0  0.51488  0.46624  0.72317  1.0000
  C   C510      1.0  0.53318  0.05625  0.62482  1.0000
  C   C511      1.0  0.50237  0.01620  0.74163  1.0000
  H   H878      1.0  0.53001  0.44936  0.71794  1.0000
  H   H879      1.0  0.46827  0.19938  0.84100  1.0000
  C   C512      1.0  0.57241  0.11542  0.54941  1.0000
  C   C513      1.0  0.58447  0.10270  0.57918  1.0000
  C   C514      1.0  0.60404  0.08028  0.57588  1.0000
  C   C515      1.0  0.61129  0.07072  0.54255  1.0000
  C   C516      1.0  0.65104  0.43065  0.78540  1.0000
  H   H880      1.0  0.57888  0.11043  0.60462  1.0000
  C   C517      1.0  0.52259  0.99498  0.74915  1.0000
  S   S122      1.0  0.33721  0.20199  0.87633  1.0000
  C   C518      1.0  0.51719  0.06379  0.59148  1.0000
  H   H881      1.0  0.65223  0.38733  0.80561  1.0000
  C   C519      1.0  0.64892  0.14275  0.67714  1.0000
  H   H882      1.0  0.45802  0.22819  0.78366  1.0000
  H   H883      1.0  0.54487  0.36991  0.91551  1.0000
  H   H884      1.0  0.33734  0.41632  0.79992  1.0000
  H   H885      1.0  0.46037  0.45392  0.59221  1.0000
  H   H886      1.0  0.49220  0.48228  0.79980  1.0000
  H   H887      1.0  0.49775  0.44828  0.58246  1.0000
  H   H888      1.0  0.44818  0.37201  0.55033  1.0000
  H   H889      1.0  0.52550  0.06995  0.64629  1.0000
  C   C520      1.0  0.47548  0.44422  0.57352  1.0000
  H   H890      1.0  0.55742  0.40742  0.81725  1.0000
  H   H891      1.0  0.58220  0.42297  0.76359  1.0000
  H   H892      1.0  0.34311  0.30013  0.91940  1.0000
  C   C521      1.0  0.50112  0.42593  0.81593  1.0000
  C   C522      1.0  0.49277  0.37564  0.80043  1.0000
  H   H893      1.0  0.50492  0.19979  0.82771  1.0000
  H   H894      1.0  0.49404  0.06082  0.59645  1.0000
  H   H895      1.0  0.45992  0.36150  0.83779  1.0000
  N   N27       1.0  0.47988  0.08704  0.82834  1.0000
  C   C523      1.0  0.48527  0.06041  0.84962  1.0000
  C   C524      1.0  0.46524  0.10892  0.85082  1.0000
  C   C525      1.0  0.45919  0.07903  0.79985  1.0000
  C   C526      1.0  0.50683  0.09931  0.81213  1.0000
  C   C527      1.0  0.53546  0.09499  0.83210  1.0000
  C   C528      1.0  0.49515  0.03388  0.82884  1.0000
  C   C529      1.0  0.44766  0.10388  0.77711  1.0000
  C   C530      1.0  0.48267  0.12030  0.88195  1.0000
  C   C531      1.0  0.46467  0.14048  0.90400  1.0000
  C   C532      1.0  0.55928  0.11374  0.81694  1.0000
  H   H896      1.0  0.35021  0.25913  0.83427  1.0000
  C   C533      1.0  0.43211  0.09250  0.74517  1.0000
  H   H897      1.0  0.46529  0.05397  0.86360  1.0000
  H   H898      1.0  0.50118  0.06435  0.87034  1.0000
  H   H899      1.0  0.45957  0.12825  0.83550  1.0000
  H   H900      1.0  0.44450  0.10011  0.86076  1.0000
  H   H901      1.0  0.44031  0.06756  0.81079  1.0000
  H   H902      1.0  0.46940  0.06374  0.78179  1.0000
  H   H903      1.0  0.51056  0.09003  0.78607  1.0000
  H   H904      1.0  0.50407  0.12259  0.80711  1.0000
  H   H905      1.0  0.54258  0.07246  0.83014  1.0000
  H   H906      1.0  0.53361  0.10004  0.85991  1.0000
  H   H907      1.0  0.44461  0.48272  0.64631  1.0000
  H   H908      1.0  0.51112  0.03982  0.80879  1.0000
  H   H909      1.0  0.46535  0.11800  0.76818  1.0000
  H   H910      1.0  0.43187  0.11676  0.79181  1.0000
  H   H911      1.0  0.49001  0.10272  0.89908  1.0000
  H   H912      1.0  0.50143  0.13279  0.87262  1.0000
  H   H913      1.0  0.44543  0.12923  0.91436  1.0000
  H   H914      1.0  0.47760  0.14823  0.92621  1.0000
  H   H915      1.0  0.45772  0.15929  0.88851  1.0000
  H   H916      1.0  0.55421  0.13671  0.82055  1.0000
  H   H917      1.0  0.57991  0.10913  0.83021  1.0000
  H   H918      1.0  0.56208  0.10943  0.78889  1.0000
  H   H919      1.0  0.44936  0.17596  0.78878  1.0000
  H   H920      1.0  0.47639  0.02404  0.81568  1.0000
  C   C534      1.0  0.47075  0.45698  0.53745  1.0000
  H   H921      1.0  0.44720  0.08059  0.72835  1.0000
  H   H922      1.0  0.41417  0.07812  0.75295  1.0000
  H   H923      1.0  0.42310  0.11062  0.73006  1.0000
  H   H924      1.0  0.51907  0.19223  0.88171  1.0000
  H   H925      1.0  0.49514  0.22176  0.77305  1.0000
  H   H926      1.0  0.57690  0.40158  0.72561  1.0000
  H   H927      1.0  0.50182  0.25409  0.89680  1.0000
  C   C535      1.0  0.43234  0.30038  0.86256  1.0000
  H   H928      1.0  0.48666  0.16938  0.77793  1.0000
  H   H929      1.0  0.64970  0.12706  0.65568  1.0000
  H   H930      1.0  0.44331  0.24094  0.85626  1.0000
  H   H931      1.0  0.54298  0.30470  0.80223  1.0000
  H   H932      1.0  0.65217  0.11234  0.85279  1.0000
  H   H933      1.0  0.47833  0.29627  0.86708  1.0000
  H   H934      1.0  0.54200  0.22169  0.86957  1.0000
  H   H935      1.0  0.51907  0.20929  0.94292  1.0000
  H   H936      1.0  0.34887  0.23447  0.74708  1.0000
  H   H937      1.0  0.52410  0.27120  0.84842  1.0000
  C   C536      1.0  0.57558  0.40152  0.75430  1.0000
  H   H938      1.0  0.49036  0.38692  0.86828  1.0000
  C   C537      1.0  0.34626  0.39599  0.84849  1.0000
  H   H939      1.0  0.53644  0.45102  0.79314  1.0000
  H   H940      1.0  0.51417  0.99213  0.83636  1.0000
  S   S123      1.0  0.64681  0.26356  0.90207  1.0000
  H   H941      1.0  0.45785  0.27583  0.89785  1.0000
  H   H942      1.0  0.52314  0.30845  0.76238  1.0000
  C   C538      1.0  0.53312  0.39044  0.91789  1.0000
  S   S124      1.0  0.34729  0.15825  0.81003  1.0000
  H   H943      1.0  0.63148  0.04372  0.84195  1.0000
  H   H944      1.0  0.57266  0.48230  0.64533  1.0000
  S   S125      1.0  0.34464  0.41471  0.70901  1.0000
  H   H945      1.0  0.62655  0.05352  0.53974  1.0000
  H   H946      1.0  0.54550  0.40446  0.93559  1.0000
  H   H947      1.0  0.51164  0.38641  0.92941  1.0000
  C   C539      1.0  0.54224  0.39212  0.80549  1.0000
  H   H948      1.0  0.49041  0.29715  0.81034  1.0000
  H   H949      1.0  0.44179  0.37080  0.76211  1.0000
  H   H950      1.0  0.41261  0.28740  0.86673  1.0000
  H   H951      1.0  0.48976  0.42863  0.79078  1.0000
  C   C540      1.0  0.53038  0.40494  0.88251  1.0000
  C   C541      1.0  0.46382  0.99965  0.65050  1.0000
  H   H952      1.0  0.33006  0.20084  0.74921  1.0000
  N   N28       1.0  0.51235  0.39577  0.81987  1.0000
  H   H953      1.0  0.36894  0.39220  0.84102  1.0000
  H   H954      1.0  0.52945  0.03364  0.63220  1.0000
  H   H955      1.0  0.34542  0.40045  0.87666  1.0000
  H   H956      1.0  0.51984  0.36394  0.85952  1.0000
  C   C542      1.0  0.51239  0.38652  0.85737  1.0000
  H   H957      1.0  0.48444  0.08265  0.54389  1.0000
  N   N29       1.0  0.51092  0.04699  0.52710  1.0000
  H   H958      1.0  0.47943  0.22319  0.89658  1.0000
  C   C543      1.0  0.52342  0.45067  0.81720  1.0000
  C   C544      1.0  0.53587  0.21613  0.92420  1.0000
  H   H959      1.0  0.60490  0.48226  0.81170  1.0000
  C   C545      1.0  0.32929  0.22361  0.75706  1.0000
  H   H960      1.0  0.51979  0.42590  0.88646  1.0000
  C   C546      1.0  0.46124  0.37391  0.81327  1.0000
  C   C547      1.0  0.54487  0.39489  0.76563  1.0000
  H   H961      1.0  0.47519  0.48016  0.53868  1.0000
  H   H962      1.0  0.55102  0.37076  0.81271  1.0000
  H   H963      1.0  0.44995  0.33674  0.78215  1.0000
  H   H964      1.0  0.45320  0.26219  0.82049  1.0000
  H   H965      1.0  0.49161  0.38200  0.77265  1.0000
  S   S126      1.0  0.32858  0.13224  0.88709  1.0000
  H   H966      1.0  0.53068  0.41191  0.75565  1.0000
  H   H967      1.0  0.55458  0.20164  0.92686  1.0000
  H   H968      1.0  0.49270  0.00405  0.87228  1.0000
  H   H969      1.0  0.53836  0.44865  0.83923  1.0000
  H   H970      1.0  0.55235  0.40872  0.87289  1.0000
  H   H971      1.0  0.54311  0.23815  0.93052  1.0000
  H   H972      1.0  0.59062  0.38521  0.76464  1.0000
  H   H973      1.0  0.50164  0.35355  0.80080  1.0000
  H   H974      1.0  0.34938  0.40886  0.53706  1.0000
  C   C548      1.0  0.50865  0.47965  0.82030  1.0000
  H   H975      1.0  0.41983  0.35753  0.79701  1.0000
  N   N30       1.0  0.48885  0.24061  0.84561  1.0000
  C   C549      1.0  0.46036  0.25581  0.84675  1.0000
  C   C550      1.0  0.48481  0.21248  0.82722  1.0000
  C   C551      1.0  0.49744  0.23393  0.88252  1.0000
  C   C552      1.0  0.51239  0.25822  0.82881  1.0000
  C   C553      1.0  0.50350  0.27951  0.79975  1.0000
  C   C554      1.0  0.45905  0.28255  0.87025  1.0000
  C   C555      1.0  0.52445  0.21491  0.88716  1.0000
  C   C556      1.0  0.47654  0.21401  0.78846  1.0000
  C   C557      1.0  0.46847  0.18445  0.77483  1.0000
  C   C558      1.0  0.52992  0.29306  0.78276  1.0000
  H   H976      1.0  0.52902  0.24383  0.81785  1.0000
  H   H977      1.0  0.47534  0.01968  0.58063  1.0000
  H   H978      1.0  0.55019  0.05455  0.55560  1.0000
  H   H979      1.0  0.35076  0.26447  0.93472  1.0000
  H   H980      1.0  0.58254  0.47410  0.60143  1.0000
  C   C559      1.0  0.64215  0.40805  0.80735  1.0000
  S   S127      1.0  0.65650  0.33299  0.91380  1.0000
  H   H981      1.0  0.44766  0.45428  0.53124  1.0000
  S   S128      1.0  0.65015  0.48572  0.75940  1.0000
  H   H982      1.0  0.52806  0.01922  0.86484  1.0000
  H   H983      1.0  0.44331  0.47840  0.73045  1.0000
  C   C560      1.0  0.52822  0.04600  0.56029  1.0000
  H   H984      1.0  0.53121  0.02345  0.56894  1.0000
  C   C561      1.0  0.34579  0.16126  0.00452  1.0000
  H   H985      1.0  0.49812  0.00251  0.52896  1.0000
  H   H986      1.0  0.34780  0.44017  0.83412  1.0000
  H   H987      1.0  0.63485  0.16074  0.66921  1.0000
  C   C562      1.0  0.44127  0.00351  0.54937  1.0000
  H   H988      1.0  0.42947  0.00878  0.52527  1.0000
  H   H989      1.0  0.45270  0.99678  0.67562  1.0000
  H   H990      1.0  0.42582  0.00401  0.57127  1.0000
  C   C563      1.0  0.46610  0.48268  0.72973  1.0000
  H   H991      1.0  0.63273  0.01550  0.81058  1.0000
  H   H992      1.0  0.46723  0.02292  0.64634  1.0000
  H   H993      1.0  0.63948  0.13195  0.70013  1.0000
  C   C564      1.0  0.33446  0.42126  0.82775  1.0000
  H   H994      1.0  0.65817  0.21289  0.75873  1.0000
  C   C565      1.0  0.33586  0.27752  0.91874  1.0000
  C   C566      1.0  0.48818  0.02397  0.52665  1.0000
  H   H995      1.0  0.65222  0.34109  0.99315  1.0000
  H   H996      1.0  0.65768  0.16258  0.82594  1.0000
  H   H997      1.0  0.32919  0.22444  0.78575  1.0000
  H   H998      1.0  0.33669  0.27003  0.89158  1.0000
  H   H999      1.0  0.59623  0.00512  0.85394  1.0000
  H   H1000     1.0  0.33627  0.07969  0.78984  1.0000
  H   H1001     1.0  0.33467  0.30880  0.82144  1.0000
  C   C567      1.0  0.61914  0.00255  0.86118  1.0000
  H   H1002     1.0  0.54523  0.00009  0.74899  1.0000
  H   H1003     1.0  0.33145  0.30186  0.63378  1.0000
  H   H1004     1.0  0.53164  0.48793  0.60498  1.0000
  H   H1005     1.0  0.50535  0.99340  0.67273  1.0000
  C   C568      1.0  0.57586  0.49151  0.61905  1.0000
  H   H1006     1.0  0.65919  0.25360  0.79873  1.0000
  C   C569      1.0  0.49828  0.07640  0.52191  1.0000
  H   H1007     1.0  0.51591  0.09259  0.52137  1.0000
  Fe  Fe66      1.0  0.45422  0.86083  0.35719  1.0000
  S   S129      1.0  0.43208  0.88789  0.31723  1.0000
  S   S130      1.0  0.49535  0.83563  0.34831  1.0000
  Fe  Fe67      1.0  0.40670  0.87010  0.41132  1.0000
  S   S131      1.0  0.38075  0.89755  0.37502  1.0000
  S   S132      1.0  0.38845  0.85821  0.46429  1.0000
  Fe  Fe68      1.0  0.39126  0.86579  0.33375  1.0000
  S   S133      1.0  0.36204  0.84744  0.29201  1.0000
  Fe  Fe69      1.0  0.42334  0.91740  0.36151  1.0000
  S   S134      1.0  0.42647  0.96528  0.35578  1.0000
  S   S135      1.0  0.41405  0.83634  0.37084  1.0000
  S   S136      1.0  0.44862  0.89225  0.40072  1.0000
  S   S137      1.0  0.35187  0.63960  0.20465  1.0000
  H   H1008     1.0  0.35439  0.82165  0.40225  1.0000
  Fe  Fe70      1.0  0.34974  0.60599  0.24653  1.0000
  S   S138      1.0  0.38689  0.58451  0.27499  1.0000
  H   H1009     1.0  0.48718  0.54255  0.29464  1.0000
  H   H1010     1.0  0.59607  0.90232  0.31691  1.0000
  C   C570      1.0  0.37451  0.53635  0.35635  1.0000
  H   H1011     1.0  0.35223  0.99035  0.51402  1.0000
  H   H1012     1.0  0.56760  0.87512  0.36115  1.0000
  H   H1013     1.0  0.37412  0.78625  0.25094  1.0000
  C   C571      1.0  0.33442  0.72346  0.12030  1.0000
  C   C572      1.0  0.47067  0.62390  0.31735  1.0000
  C   C573      1.0  0.45224  0.64040  0.29652  1.0000
  C   C574      1.0  0.42632  0.62891  0.28369  1.0000
  C   C575      1.0  0.41890  0.60049  0.29094  1.0000
  C   C576      1.0  0.43760  0.58388  0.31127  1.0000
  C   C577      1.0  0.46312  0.59559  0.32476  1.0000
  H   H1014     1.0  0.45811  0.66210  0.29007  1.0000
  H   H1015     1.0  0.41231  0.64185  0.26777  1.0000
  H   H1016     1.0  0.43245  0.56174  0.31648  1.0000
  H   H1017     1.0  0.47711  0.58258  0.34061  1.0000
  C   C578      1.0  0.64801  0.81988  0.02350  1.0000
  H   H1018     1.0  0.35348  0.73537  0.29527  1.0000
  C   C579      1.0  0.59350  0.92341  0.32974  1.0000
  H   H1019     1.0  0.43075  0.90174  0.48258  1.0000
  C   C580      1.0  0.59843  0.76213  0.26229  1.0000
  H   H1020     1.0  0.38081  0.49461  0.30758  1.0000
  C   C581      1.0  0.49398  0.51446  0.36450  1.0000
  C   C582      1.0  0.48474  0.95869  0.36159  1.0000
  H   H1021     1.0  0.44862  0.51971  0.35588  1.0000
  H   H1022     1.0  0.49787  0.53698  0.36798  1.0000
  H   H1023     1.0  0.48078  0.93593  0.36135  1.0000
  S   S139      1.0  0.64324  0.83037  0.19045  1.0000
  H   H1024     1.0  0.33920  0.70298  0.10715  1.0000
  Fe  Fe71      1.0  0.63695  0.86234  0.23291  1.0000
  S   S140      1.0  0.59277  0.88026  0.24541  1.0000
  C   C583      1.0  0.43652  0.99115  0.25828  1.0000
  Fe  Fe72      1.0  0.55981  0.60038  0.43764  1.0000
  S   S141      1.0  0.59279  0.57013  0.41705  1.0000
  S   S142      1.0  0.55311  0.61306  0.49401  1.0000
  Fe  Fe73      1.0  0.53451  0.61200  0.36462  1.0000
  S   S143      1.0  0.56603  0.58260  0.33871  1.0000
  S   S144      1.0  0.50283  0.63930  0.33366  1.0000
  Fe  Fe74      1.0  0.55668  0.55369  0.38411  1.0000
  S   S145      1.0  0.64474  0.61778  0.36009  1.0000
  Fe  Fe75      1.0  0.59960  0.60170  0.37354  1.0000
  C   C584      1.0  0.33821  0.80659  0.41312  1.0000
  S   S146      1.0  0.52294  0.58159  0.40768  1.0000
  S   S147      1.0  0.56874  0.63349  0.39649  1.0000
  H   H1025     1.0  0.64142  0.82769  0.11119  1.0000
  H   H1026     1.0  0.33877  0.57571  0.33492  1.0000
  H   H1027     1.0  0.59801  0.71692  0.25364  1.0000
  H   H1028     1.0  0.50610  0.49325  0.28902  1.0000
  C   C585      1.0  0.51288  0.96898  0.36507  1.0000
  H   H1029     1.0  0.53038  0.95412  0.36780  1.0000
  H   H1030     1.0  0.38474  0.54991  0.33606  1.0000
  H   H1031     1.0  0.64236  0.71337  0.38523  1.0000
  C   C586      1.0  0.63816  0.81534  0.05748  1.0000
  H   H1032     1.0  0.49405  0.56965  0.51855  1.0000
  H   H1033     1.0  0.62117  0.80000  0.06219  1.0000
  H   H1034     1.0  0.57262  0.65423  0.24272  1.0000
  C   C587      1.0  0.52176  0.84742  0.31841  1.0000
  C   C588      1.0  0.51828  0.87258  0.29925  1.0000
  C   C589      1.0  0.54008  0.88196  0.27665  1.0000
  C   C590      1.0  0.56555  0.86630  0.27281  1.0000
  C   C591      1.0  0.56899  0.84095  0.29171  1.0000
  C   C592      1.0  0.54711  0.83151  0.31434  1.0000
  H   H1035     1.0  0.49895  0.88506  0.30217  1.0000
  H   H1036     1.0  0.53727  0.90164  0.26221  1.0000
  H   H1037     1.0  0.58858  0.82884  0.28914  1.0000
  H   H1038     1.0  0.55007  0.81213  0.32922  1.0000
  H   H1039     1.0  0.57416  0.93338  0.31797  1.0000
  N   N31       1.0  0.47277  0.74452  0.32124  1.0000
  C   C593      1.0  0.49621  0.75873  0.34194  1.0000
  C   C594      1.0  0.45326  0.76740  0.30681  1.0000
  C   C595      1.0  0.45526  0.72639  0.34605  1.0000
  C   C596      1.0  0.48422  0.72553  0.29288  1.0000
  C   C597      1.0  0.51284  0.73475  0.27534  1.0000
  C   C598      1.0  0.51527  0.73833  0.36377  1.0000
  C   C599      1.0  0.42734  0.71299  0.33118  1.0000
  C   C600      1.0  0.46639  0.78818  0.27975  1.0000
  C   C601      1.0  0.44604  0.81298  0.27210  1.0000
  C   C602      1.0  0.51921  0.71628  0.24378  1.0000
  C   C603      1.0  0.54263  0.75337  0.37579  1.0000
  C   C604      1.0  0.41584  0.68917  0.35467  1.0000
  H   H1040     1.0  0.48674  0.77435  0.36038  1.0000
  H   H1041     1.0  0.51041  0.77188  0.32518  1.0000
  H   H1042     1.0  0.43455  0.75778  0.29340  1.0000
  H   H1043     1.0  0.44430  0.78036  0.32843  1.0000
  H   H1044     1.0  0.44902  0.73911  0.36919  1.0000
  H   H1045     1.0  0.46843  0.70831  0.35608  1.0000
  H   H1046     1.0  0.48812  0.70348  0.30292  1.0000
  H   H1047     1.0  0.46777  0.72293  0.27223  1.0000
  H   H1048     1.0  0.53102  0.73219  0.29355  1.0000
  H   H1049     1.0  0.51272  0.75732  0.26677  1.0000
  H   H1050     1.0  0.50342  0.73130  0.38730  1.0000
  H   H1051     1.0  0.52129  0.71891  0.34915  1.0000
  H   H1052     1.0  0.43091  0.70390  0.30512  1.0000
  H   H1053     1.0  0.41031  0.72946  0.32921  1.0000
  H   H1054     1.0  0.48690  0.79760  0.28855  1.0000
  H   H1055     1.0  0.47001  0.77678  0.25502  1.0000
  H   H1056     1.0  0.44211  0.82552  0.29592  1.0000
  H   H1057     1.0  0.45584  0.82748  0.25251  1.0000
  H   H1058     1.0  0.42523  0.80505  0.26193  1.0000
  H   H1059     1.0  0.54042  0.72226  0.23276  1.0000
  H   H1060     1.0  0.51968  0.69329  0.25112  1.0000
  H   H1061     1.0  0.50261  0.71958  0.22353  1.0000
  H   H1062     1.0  0.55610  0.75962  0.35327  1.0000
  H   H1063     1.0  0.53723  0.77282  0.39080  1.0000
  H   H1064     1.0  0.55513  0.73876  0.39268  1.0000
  H   H1065     1.0  0.39592  0.68008  0.34335  1.0000
  H   H1066     1.0  0.43178  0.67166  0.35717  1.0000
  H   H1067     1.0  0.41086  0.69761  0.38079  1.0000
  C   C605      1.0  0.52469  0.53061  0.26438  1.0000
  C   C606      1.0  0.49773  0.54852  0.26985  1.0000
  H   H1068     1.0  0.45506  0.97754  0.47820  1.0000
  H   H1069     1.0  0.38596  0.97206  0.51164  1.0000
  H   H1070     1.0  0.53448  0.53749  0.23955  1.0000
  H   H1071     1.0  0.61604  0.71785  0.44028  1.0000
  H   H1072     1.0  0.60390  0.90888  0.38312  1.0000
  H   H1073     1.0  0.50357  0.57154  0.27091  1.0000
  H   H1074     1.0  0.48226  0.54538  0.24833  1.0000
  H   H1075     1.0  0.61412  0.66876  0.36504  1.0000
  C   C607      1.0  0.65111  0.73850  0.14359  1.0000
  C   C608      1.0  0.46193  0.97784  0.35841  1.0000
  H   H1076     1.0  0.62938  0.92063  0.27529  1.0000
  H   H1077     1.0  0.34495  0.76748  0.36380  1.0000
  N   N32       1.0  0.61990  0.94157  0.32348  1.0000
  H   H1078     1.0  0.65961  0.71794  0.32779  1.0000
  H   H1079     1.0  0.34130  0.94122  0.27034  1.0000
  N   N33       1.0  0.34355  0.53061  0.34708  1.0000
  H   H1080     1.0  0.41579  0.94729  0.42592  1.0000
  H   H1081     1.0  0.63290  0.73228  0.26195  1.0000
  C   C609      1.0  0.58558  0.91769  0.36828  1.0000
  H   H1082     1.0  0.40622  0.94461  0.28360  1.0000
  H   H1083     1.0  0.65723  0.98776  0.34759  1.0000
  H   H1084     1.0  0.37415  0.57478  0.38862  1.0000
  H   H1085     1.0  0.56080  0.50329  0.21775  1.0000
  H   H1086     1.0  0.43729  0.97945  0.28334  1.0000
  C   C610      1.0  0.33014  0.78431  0.35402  1.0000
  H   H1087     1.0  0.36799  0.50686  0.24707  1.0000
  C   C611      1.0  0.57510  0.66760  0.29665  1.0000
  H   H1088     1.0  0.39090  0.75166  0.25500  1.0000
  H   H1089     1.0  0.37374  0.95385  0.40181  1.0000
  H   H1090     1.0  0.61833  0.74229  0.32307  1.0000
  H   H1091     1.0  0.37078  0.76732  0.31092  1.0000
  H   H1092     1.0  0.42493  0.56047  0.38372  1.0000
  H   H1093     1.0  0.54185  0.90376  0.35679  1.0000
  H   H1094     1.0  0.41332  0.56112  0.42813  1.0000
  C   C612      1.0  0.34706  0.64626  0.08757  1.0000
  H   H1095     1.0  0.46278  0.94622  0.45306  1.0000
  H   H1096     1.0  0.62923  0.97156  0.22129  1.0000
  C   C613      1.0  0.34779  0.65528  0.02493  1.0000
  H   H1097     1.0  0.35211  0.73819  0.11265  1.0000
  C   C614      1.0  0.38740  0.97564  0.24702  1.0000
  H   H1098     1.0  0.34926  0.78718  0.42295  1.0000
  H   H1099     1.0  0.61112  0.73464  0.17210  1.0000
  H   H1100     1.0  0.36275  0.91741  0.29630  1.0000
  H   H1101     1.0  0.56724  0.65890  0.32170  1.0000
  C   C615      1.0  0.36800  0.70884  0.16885  1.0000
  H   H1102     1.0  0.61096  0.96962  0.36647  1.0000
  C   C616      1.0  0.38544  0.95545  0.27895  1.0000
  H   H1103     1.0  0.64303  0.72459  0.12261  1.0000
  C   C617      1.0  0.39743  0.87520  0.50388  1.0000
  H   H1104     1.0  0.57868  0.50376  0.27390  1.0000
  H   H1105     1.0  0.59524  0.56704  0.50150  1.0000
  C   C618      1.0  0.45080  0.96669  0.45329  1.0000
  H   H1106     1.0  0.37446  0.98919  0.38632  1.0000
  C   C619      1.0  0.60809  0.67205  0.29778  1.0000
  C   C620      1.0  0.34188  0.52145  0.30972  1.0000
  H   H1107     1.0  0.34430  0.80130  0.34282  1.0000
  C   C621      1.0  0.51440  0.50248  0.49340  1.0000
  H   H1108     1.0  0.57753  0.62528  0.27351  1.0000
  C   C622      1.0  0.62500  0.75176  0.16112  1.0000
  H   H1109     1.0  0.39485  0.96253  0.22478  1.0000
  C   C623      1.0  0.56671  0.64607  0.26881  1.0000
  H   H1110     1.0  0.61227  0.76435  0.14213  1.0000
  H   H1111     1.0  0.37412  0.67746  0.06199  1.0000
  H   H1112     1.0  0.63180  0.76601  0.18244  1.0000
  C   C624      1.0  0.60799  0.69065  0.35658  1.0000
  H   H1113     1.0  0.38382  0.72568  0.16177  1.0000
  H   H1114     1.0  0.36952  0.70485  0.19715  1.0000
  H   H1115     1.0  0.37343  0.68877  0.15514  1.0000
  H   H1116     1.0  0.55477  0.89346  0.39891  1.0000
  C   C625      1.0  0.35593  0.75873  0.29108  1.0000
  H   H1117     1.0  0.59578  0.97776  0.27081  1.0000
  C   C626      1.0  0.41873  0.96066  0.44917  1.0000
  H   H1118     1.0  0.35530  0.65073  0.11313  1.0000
  H   H1119     1.0  0.53972  0.53596  0.28565  1.0000
  S   S148      1.0  0.55122  0.50621  0.37861  1.0000
  H   H1120     1.0  0.58126  0.94253  0.26344  1.0000
  H   H1121     1.0  0.37933  0.96735  0.30250  1.0000
  H   H1122     1.0  0.65740  0.74940  0.07031  1.0000
  H   H1123     1.0  0.65921  0.77953  0.11855  1.0000
  H   H1124     1.0  0.63926  0.58215  0.29778  1.0000
  C   C627      1.0  0.61007  0.95761  0.22438  1.0000
  H   H1125     1.0  0.41725  0.52735  0.40651  1.0000
  H   H1126     1.0  0.34998  0.53893  0.29261  1.0000
  H   H1127     1.0  0.58416  0.69134  0.35763  1.0000
  H   H1128     1.0  0.58429  0.72681  0.31558  1.0000
  H   H1129     1.0  0.49419  0.51448  0.48961  1.0000
  C   C628      1.0  0.60737  0.72481  0.30873  1.0000
  C   C629      1.0  0.33758  0.71838  0.15977  1.0000
  H   H1130     1.0  0.56376  0.68786  0.29113  1.0000
  C   C630      1.0  0.36305  0.93194  0.27348  1.0000
  C   C631      1.0  0.60101  0.95579  0.26236  1.0000
  H   H1131     1.0  0.57557  0.76377  0.27009  1.0000
  C   C632      1.0  0.64485  0.92738  0.34189  1.0000
  H   H1132     1.0  0.60003  0.76677  0.23416  1.0000
  H   H1133     1.0  0.58507  0.70044  0.42188  1.0000
  C   C633      1.0  0.36371  0.97503  0.40565  1.0000
  H   H1134     1.0  0.33328  0.73808  0.17461  1.0000
  H   H1135     1.0  0.34963  0.74923  0.05718  1.0000
  C   C634      1.0  0.64969  0.83091  0.08534  1.0000
  H   H1136     1.0  0.44329  0.97552  0.23820  1.0000
  C   C635      1.0  0.41067  0.54996  0.40305  1.0000
  H   H1137     1.0  0.61560  0.67477  0.27070  1.0000
  C   C636      1.0  0.53910  0.52286  0.48447  1.0000
  H   H1138     1.0  0.45886  0.98024  0.43169  1.0000
  C   C637      1.0  0.62520  0.94260  0.28492  1.0000
  H   H1139     1.0  0.35622  0.75461  0.23488  1.0000
  C   C638      1.0  0.65132  0.69623  0.32147  1.0000
  H   H1140     1.0  0.41200  0.94788  0.47186  1.0000
  H   H1141     1.0  0.36444  0.94201  0.46115  1.0000
  C   C639      1.0  0.60882  0.70216  0.42065  1.0000
  H   H1142     1.0  0.57852  0.93769  0.38094  1.0000
  C   C640      1.0  0.35773  0.66131  0.05851  1.0000
  C   C641      1.0  0.37013  0.76314  0.25578  1.0000
  C   C642      1.0  0.56095  0.89621  0.37134  1.0000
  H   H1143     1.0  0.64495  0.95475  0.27859  1.0000
  H   H1144     1.0  0.36509  0.98187  0.24055  1.0000
  H   H1145     1.0  0.51684  0.49659  0.52107  1.0000
  H   H1146     1.0  0.53806  0.54217  0.50099  1.0000
  N   N34       1.0  0.61876  0.69612  0.32025  1.0000
  C   C643      1.0  0.46607  0.50468  0.35763  1.0000
  C   C644      1.0  0.32944  0.50877  0.37064  1.0000
  N   N35       1.0  0.36924  0.98542  0.44192  1.0000
  H   H1147     1.0  0.49564  0.98868  0.24212  1.0000
  H   H1148     1.0  0.61498  0.93600  0.21424  1.0000
  H   H1149     1.0  0.36564  0.54255  0.41205  1.0000
  H   H1150     1.0  0.54314  0.64242  0.26951  1.0000
  C   C645      1.0  0.61017  0.73224  0.26986  1.0000
  H   H1151     1.0  0.34073  0.94551  0.34972  1.0000
  C   C646      1.0  0.37942  0.55173  0.39137  1.0000
  H   H1152     1.0  0.36835  0.91901  0.25033  1.0000
  C   C647      1.0  0.41864  0.89634  0.50557  1.0000
  C   C648      1.0  0.32887  0.96522  0.35656  1.0000
  H   H1153     1.0  0.38732  0.51643  0.35643  1.0000
  H   H1154     1.0  0.55572  0.49415  0.30856  1.0000
  H   H1155     1.0  0.60982  0.73348  0.37985  1.0000
  H   H1156     1.0  0.61121  0.77854  0.27620  1.0000
  H   H1157     1.0  0.61824  0.68101  0.42725  1.0000
  C   C649      1.0  0.61862  0.71181  0.38466  1.0000
  H   H1158     1.0  0.53777  0.52981  0.45697  1.0000
  C   C650      1.0  0.61421  0.97083  0.33800  1.0000
  H   H1159     1.0  0.33730  0.98339  0.34092  1.0000
  C   C651      1.0  0.40127  0.98878  0.44656  1.0000
  H   H1160     1.0  0.50087  0.49542  0.24344  1.0000
  H   H1161     1.0  0.61756  0.65145  0.30671  1.0000
  H   H1162     1.0  0.33314  0.96291  0.46453  1.0000
  C   C652      1.0  0.35793  0.49376  0.29996  1.0000
  C   C653      1.0  0.51724  0.49818  0.26410  1.0000
  H   H1163     1.0  0.59365  0.97942  0.32776  1.0000
  C   C654      1.0  0.36272  0.97018  0.50605  1.0000
  H   H1164     1.0  0.65908  0.68199  0.34277  1.0000
  H   H1165     1.0  0.32981  0.79643  0.28474  1.0000
  C   C655      1.0  0.32723  0.75543  0.05107  1.0000
  C   C656      1.0  0.35688  0.96401  0.46722  1.0000
  H   H1166     1.0  0.64552  0.93414  0.36947  1.0000
  H   H1167     1.0  0.36374  0.49390  0.40541  1.0000
  H   H1168     1.0  0.59228  0.96671  0.20875  1.0000
  H   H1169     1.0  0.56016  0.51239  0.48887  1.0000
  C   C657      1.0  0.33175  0.97147  0.39520  1.0000
  H   H1170     1.0  0.49035  0.98706  0.28847  1.0000
  C   C658      1.0  0.51656  0.49501  0.36727  1.0000
  H   H1171     1.0  0.64186  0.90370  0.34255  1.0000
  H   H1172     1.0  0.32718  0.56586  0.37724  1.0000
  H   H1173     1.0  0.32757  0.81725  0.43527  1.0000
  C   C659      1.0  0.32749  0.55855  0.34991  1.0000
  Fe  Fe76      1.0  0.36692  0.70148  0.86200  1.0000
  H   H1174     1.0  0.61245  0.93243  0.68687  1.0000
  S   S149      1.0  0.39253  0.74004  0.84155  1.0000
  H   H1175     1.0  0.44997  0.98150  0.54756  1.0000
  C   C660      1.0  0.52451  0.59165  0.64773  1.0000
  Fe  Fe77      1.0  0.36301  0.63517  0.86376  1.0000
  S   S150      1.0  0.38544  0.59447  0.84491  1.0000
  S   S151      1.0  0.39004  0.66740  0.89267  1.0000
  H   H1176     1.0  0.52476  0.49707  0.81738  1.0000
  Fe  Fe78      1.0  0.40013  0.91440  0.66113  1.0000
  S   S152      1.0  0.41915  0.88158  0.69722  1.0000
  S   S153      1.0  0.41631  0.92254  0.60581  1.0000
  Fe  Fe79      1.0  0.37139  0.94647  0.72240  1.0000
  S   S154      1.0  0.38810  0.91565  0.76242  1.0000
  H   H1177     1.0  0.35647  0.95023  0.55643  1.0000
  Fe  Fe80      1.0  0.42923  0.91845  0.73217  1.0000
  S   S155      1.0  0.47333  0.92374  0.75556  1.0000
  Fe  Fe81      1.0  0.37642  0.88110  0.72445  1.0000
  S   S156      1.0  0.35190  0.84021  0.73894  1.0000
  S   S157      1.0  0.41320  0.95123  0.69469  1.0000
  S   S158      1.0  0.35632  0.91193  0.68599  1.0000
  C   C661      1.0  0.48427  0.95978  0.75465  1.0000
  H   H1178     1.0  0.55214  0.79488  0.84535  1.0000
  H   H1179     1.0  0.46463  0.55459  0.56995  1.0000
  H   H1180     1.0  0.46130  0.52751  0.74087  1.0000
  H   H1181     1.0  0.46674  0.59515  0.52972  1.0000
  C   C662      1.0  0.37436  0.56694  0.81612  1.0000
  C   C663      1.0  0.59163  0.57644  0.52662  1.0000
  C   C664      1.0  0.46046  0.81833  0.74779  1.0000
  S   S159      1.0  0.32838  0.63525  0.90455  1.0000
  C   C665      1.0  0.38479  0.52100  0.78840  1.0000
  C   C666      1.0  0.39286  0.54372  0.81029  1.0000
  H   H1182     1.0  0.36625  0.85117  0.53335  1.0000
  H   H1183     1.0  0.54776  0.49728  0.73228  1.0000
  H   H1184     1.0  0.41355  0.54321  0.82295  1.0000
  C   C667      1.0  0.38048  0.76801  0.81362  1.0000
  C   C668      1.0  0.39747  0.79277  0.80952  1.0000
  C   C669      1.0  0.38905  0.81510  0.78695  1.0000
  C   C670      1.0  0.36370  0.81273  0.76775  1.0000
  H   H1185     1.0  0.56603  0.90930  0.68421  1.0000
  C   C671      1.0  0.35502  0.76581  0.79467  1.0000
  H   H1186     1.0  0.41721  0.79472  0.82402  1.0000
  H   H1187     1.0  0.40216  0.83409  0.78439  1.0000
  H   H1188     1.0  0.57876  0.87505  0.73225  1.0000
  S   S160      1.0  0.65609  0.77246  0.89905  1.0000
  C   C672      1.0  0.34779  0.56739  0.79928  1.0000
  C   C673      1.0  0.45700  0.52697  0.63724  1.0000
  H   H1189     1.0  0.47044  0.94449  0.64051  1.0000
  C   C674      1.0  0.38840  0.88147  0.56594  1.0000
  C   C675      1.0  0.40905  0.90318  0.56735  1.0000
  H   H1190     1.0  0.45735  0.53263  0.66516  1.0000
  H   H1191     1.0  0.37661  0.87560  0.58904  1.0000
  H   H1192     1.0  0.44015  0.92719  0.53781  1.0000
  H   H1193     1.0  0.47568  0.58685  0.59196  1.0000
  Fe  Fe82      1.0  0.62764  0.84689  0.86854  1.0000
  S   S161      1.0  0.60048  0.81393  0.89607  1.0000
  S   S162      1.0  0.60408  0.88793  0.85390  1.0000
  Fe  Fe83      1.0  0.63830  0.80785  0.93170  1.0000
  S   S163      1.0  0.63312  0.79918  0.98958  1.0000
  Fe  Fe84      1.0  0.62092  0.78153  0.86099  1.0000
  S   S164      1.0  0.59409  0.74910  0.83088  1.0000
  H   H1194     1.0  0.48244  0.94799  0.68325  1.0000
  H   H1195     1.0  0.49845  0.88222  0.80186  1.0000
  Fe  Fe85      1.0  0.61826  0.59077  0.75480  1.0000
  S   S165      1.0  0.64155  0.98328  0.74425  1.0000
  S   S166      1.0  0.63928  0.62586  0.78673  1.0000
  Fe  Fe86      1.0  0.56661  0.55494  0.73647  1.0000
  S   S167      1.0  0.59168  0.52540  0.70244  1.0000
  S   S168      1.0  0.51882  0.55071  0.74475  1.0000
  Fe  Fe87      1.0  0.62433  0.52566  0.74515  1.0000
  C   C676      1.0  0.59308  0.94606  0.68460  1.0000
  Fe  Fe88      1.0  0.61225  0.56535  0.68189  1.0000
  S   S169      1.0  0.62277  0.56519  0.62422  1.0000
  S   S170      1.0  0.59771  0.55257  0.78077  1.0000
  S   S171      1.0  0.58493  0.59531  0.71310  1.0000
  C   C677      1.0  0.61485  0.91399  0.82301  1.0000
  C   C678      1.0  0.59608  0.93659  0.81506  1.0000
  C   C679      1.0  0.60384  0.95788  0.79086  1.0000
  C   C680      1.0  0.63054  0.95680  0.77444  1.0000
  H   H1196     1.0  0.34191  0.74686  0.79732  1.0000
  H   H1197     1.0  0.48170  0.86877  0.83955  1.0000
  H   H1198     1.0  0.57546  0.93771  0.82781  1.0000
  C   C681      1.0  0.52505  0.49373  0.73032  1.0000
  C   C682      1.0  0.52736  0.78127  0.88917  1.0000
  C   C683      1.0  0.60662  0.71464  0.81923  1.0000
  C   C684      1.0  0.59013  0.69767  0.79670  1.0000
  C   C685      1.0  0.59958  0.67031  0.78664  1.0000
  C   C686      1.0  0.62556  0.65959  0.79928  1.0000
  C   C687      1.0  0.64181  0.67641  0.82212  1.0000
  C   C688      1.0  0.63247  0.70378  0.83200  1.0000
  H   H1199     1.0  0.57005  0.70583  0.78678  1.0000
  H   H1200     1.0  0.58688  0.65761  0.76901  1.0000
  H   H1201     1.0  0.39923  0.50328  0.78435  1.0000
  C   C689      1.0  0.50822  0.92118  0.85007  1.0000
  C   C690      1.0  0.51349  0.96683  0.75608  1.0000
  H   H1202     1.0  0.51303  0.53709  0.56632  1.0000
  C   C691      1.0  0.50592  0.51604  0.73633  1.0000
  H   H1203     1.0  0.52920  0.95030  0.76090  1.0000
  H   H1204     1.0  0.52704  0.94905  0.54023  1.0000
  C   C692      1.0  0.56819  0.61122  0.56281  1.0000
  C   C693      1.0  0.58306  0.60079  0.59204  1.0000
  C   C694      1.0  0.60229  0.57810  0.58871  1.0000
  C   C695      1.0  0.60651  0.56606  0.55584  1.0000
  H   H1205     1.0  0.55361  0.62899  0.56559  1.0000
  H   H1206     1.0  0.58036  0.61089  0.61690  1.0000
  H   H1207     1.0  0.62164  0.54876  0.55289  1.0000
  H   H1208     1.0  0.55223  0.82126  0.79678  1.0000
  C   C696      1.0  0.50394  0.56559  0.64826  1.0000
  H   H1209     1.0  0.44825  0.54537  0.62266  1.0000
  H   H1210     1.0  0.49387  0.62224  0.66857  1.0000
  H   H1211     1.0  0.54324  0.89415  0.83653  1.0000
  C   C697      1.0  0.51561  0.61388  0.67446  1.0000
  H   H1212     1.0  0.52439  0.60234  0.62206  1.0000
  H   H1213     1.0  0.58717  0.95344  0.71095  1.0000
  H   H1214     1.0  0.47920  0.85924  0.68823  1.0000
  C   C698      1.0  0.47633  0.51051  0.73583  1.0000
  C   C699      1.0  0.46411  0.98142  0.74951  1.0000
  H   H1215     1.0  0.56066  0.85152  0.82161  1.0000
  H   H1216     1.0  0.47632  0.80744  0.73101  1.0000
  C   C700      1.0  0.42414  0.91049  0.53700  1.0000
  H   H1217     1.0  0.50668  0.80673  0.78441  1.0000
  H   H1218     1.0  0.34873  0.97574  0.84051  1.0000
  H   H1219     1.0  0.46424  0.84610  0.64835  1.0000
  H   H1220     1.0  0.58626  0.84072  0.75168  1.0000
  H   H1221     1.0  0.53895  0.88291  0.77266  1.0000
  H   H1222     1.0  0.53104  0.63202  0.67393  1.0000
  H   H1223     1.0  0.48579  0.50680  0.60059  1.0000
  H   H1224     1.0  0.51572  0.60442  0.70089  1.0000
  H   H1225     1.0  0.46520  0.89820  0.64635  1.0000
  C   C701      1.0  0.48770  0.51876  0.62531  1.0000
  H   H1226     1.0  0.48777  0.85476  0.75531  1.0000
  H   H1227     1.0  0.48642  0.91994  0.86158  1.0000
  C   C702      1.0  0.57764  0.86243  0.75660  1.0000
  H   H1228     1.0  0.59133  0.87313  0.77618  1.0000
  H   H1229     1.0  0.54568  0.96832  0.65944  1.0000
  C   C703      1.0  0.35801  0.52123  0.77204  1.0000
  H   H1230     1.0  0.33163  0.51932  0.89299  1.0000
  C   C704      1.0  0.54016  0.94639  0.66863  1.0000
  C   C705      1.0  0.53879  0.53032  0.62913  1.0000
  H   H1231     1.0  0.35000  0.51024  0.85361  1.0000
  H   H1232     1.0  0.45867  0.85186  0.78543  1.0000
  H   H1233     1.0  0.50460  0.77923  0.89739  1.0000
  H   H1234     1.0  0.53934  0.79384  0.90874  1.0000
  H   H1235     1.0  0.47923  0.81209  0.81539  1.0000
  H   H1236     1.0  0.51674  0.78213  0.83536  1.0000
  H   H1237     1.0  0.53399  0.85022  0.74848  1.0000
  H   H1238     1.0  0.44489  0.82975  0.73103  1.0000
  H   H1239     1.0  0.62486  0.97964  0.85843  1.0000
  H   H1240     1.0  0.54667  0.58511  0.65413  1.0000
  H   H1241     1.0  0.49794  0.82726  0.86903  1.0000
  N   N36       1.0  0.48448  0.62466  0.83002  1.0000
  C   C706      1.0  0.47993  0.61042  0.79543  1.0000
  C   C707      1.0  0.51379  0.61719  0.84431  1.0000
  C   C708      1.0  0.46206  0.61294  0.85462  1.0000
  C   C709      1.0  0.48061  0.65664  0.82802  1.0000
  C   C710      1.0  0.50050  0.67308  0.80275  1.0000
  C   C711      1.0  0.44986  0.61411  0.77880  1.0000
  C   C712      1.0  0.46494  0.62189  0.89317  1.0000
  C   C713      1.0  0.53859  0.61304  0.81792  1.0000
  C   C714      1.0  0.56761  0.61198  0.83625  1.0000
  C   C715      1.0  0.49237  0.70469  0.80087  1.0000
  C   C716      1.0  0.44902  0.60145  0.74246  1.0000
  C   C717      1.0  0.44316  0.60599  0.91581  1.0000
  H   H1242     1.0  0.48375  0.58697  0.79805  1.0000
  H   H1243     1.0  0.49584  0.61786  0.77603  1.0000
  H   H1244     1.0  0.52074  0.63349  0.86352  1.0000
  H   H1245     1.0  0.51284  0.59653  0.85885  1.0000
  H   H1246     1.0  0.46170  0.58911  0.85360  1.0000
  H   H1247     1.0  0.44030  0.62004  0.84664  1.0000
  H   H1248     1.0  0.45795  0.66208  0.82179  1.0000
  H   H1249     1.0  0.48443  0.66638  0.85379  1.0000
  H   H1250     1.0  0.49920  0.66443  0.77616  1.0000
  H   H1251     1.0  0.52298  0.67217  0.81208  1.0000
  H   H1252     1.0  0.43329  0.60271  0.79424  1.0000
  H   H1253     1.0  0.44389  0.63696  0.77663  1.0000
  H   H1254     1.0  0.46077  0.64509  0.89610  1.0000
  H   H1255     1.0  0.48654  0.61719  0.90372  1.0000
  H   H1256     1.0  0.53567  0.59247  0.80408  1.0000
  H   H1257     1.0  0.53963  0.63022  0.79820  1.0000
  H   H1258     1.0  0.57233  0.63269  0.84901  1.0000
  H   H1259     1.0  0.56803  0.59449  0.85578  1.0000
  H   H1260     1.0  0.58473  0.60796  0.81701  1.0000
  H   H1261     1.0  0.49401  0.71468  0.82683  1.0000
  H   H1262     1.0  0.50726  0.71613  0.78308  1.0000
  H   H1263     1.0  0.47013  0.70725  0.79100  1.0000
  H   H1264     1.0  0.46399  0.61313  0.72505  1.0000
  H   H1265     1.0  0.45502  0.57852  0.74323  1.0000
  H   H1266     1.0  0.42697  0.60320  0.73179  1.0000
  H   H1267     1.0  0.44525  0.61309  0.94307  1.0000
  H   H1268     1.0  0.42094  0.61054  0.90708  1.0000
  H   H1269     1.0  0.44685  0.58257  0.91482  1.0000
  H   H1270     1.0  0.65513  0.73223  0.00747  1.0000
  H   H1271     1.0  0.52417  0.88360  0.87515  1.0000
  H   H1272     1.0  0.52853  0.56891  0.58145  1.0000
  H   H1273     1.0  0.53688  0.75955  0.88802  1.0000
  H   H1274     1.0  0.50469  0.55599  0.67463  1.0000
  H   H1275     1.0  0.48205  0.57449  0.64586  1.0000
  H   H1276     1.0  0.48093  0.92286  0.58800  1.0000
  C   C718      1.0  0.50976  0.55451  0.58530  1.0000
  S   S172      1.0  0.34275  0.66909  0.83026  1.0000
  H   H1277     1.0  0.59860  0.96486  0.66823  1.0000
  H   H1278     1.0  0.44850  0.80201  0.76306  1.0000
  H   H1279     1.0  0.50678  0.93088  0.82384  1.0000
  S   S173      1.0  0.36206  0.67507  0.98938  1.0000
  H   H1280     1.0  0.53448  0.83841  0.87105  1.0000
  H   H1281     1.0  0.57478  0.92315  0.64174  1.0000
  C   C719      1.0  0.56849  0.92906  0.66845  1.0000
  C   C720      1.0  0.48234  0.57022  0.57337  1.0000
  H   H1282     1.0  0.33282  0.91002  0.81052  1.0000
  H   H1283     1.0  0.55590  0.54673  0.62597  1.0000
  H   H1284     1.0  0.53374  0.94869  0.69615  1.0000
  C   C721      1.0  0.54813  0.50502  0.60583  1.0000
  H   H1285     1.0  0.52177  0.93527  0.86639  1.0000
  H   H1286     1.0  0.59339  0.50766  0.61993  1.0000
  N   N37       1.0  0.50950  0.54270  0.62169  1.0000
  C   C722      1.0  0.64923  0.93412  0.78218  1.0000
  H   H1287     1.0  0.53850  0.95296  0.60433  1.0000
  C   C723      1.0  0.48918  0.95161  0.65592  1.0000
  Fe  Fe89      1.0  0.35380  0.66953  0.93129  1.0000
  H   H1288     1.0  0.53990  0.52309  0.65667  1.0000
  C   C724      1.0  0.50933  0.93391  0.54631  1.0000
  H   H1289     1.0  0.65599  0.89543  0.81212  1.0000
  N   N38       1.0  0.51527  0.84156  0.81992  1.0000
  C   C725      1.0  0.50293  0.87085  0.82645  1.0000
  C   C726      1.0  0.49477  0.82375  0.79839  1.0000
  C   C727      1.0  0.51868  0.82688  0.85462  1.0000
  C   C728      1.0  0.54446  0.84309  0.80309  1.0000
  C   C729      1.0  0.54658  0.86069  0.76917  1.0000
  C   C730      1.0  0.52171  0.89149  0.84821  1.0000
  C   C731      1.0  0.52934  0.79545  0.85352  1.0000
  C   C732      1.0  0.47553  0.83957  0.77167  1.0000
  C   C733      1.0  0.51074  0.90388  0.66034  1.0000
  H   H1290     1.0  0.53007  0.89064  0.65566  1.0000
  S   S174      1.0  0.64545  0.81501  0.83111  1.0000
  C   C734      1.0  0.38257  0.86764  0.53430  1.0000
  H   H1291     1.0  0.50421  0.98948  0.62666  1.0000
  H   H1292     1.0  0.50243  0.84449  0.65542  1.0000
  H   H1293     1.0  0.43282  0.49729  0.60513  1.0000
  H   H1294     1.0  0.50712  0.90375  0.68893  1.0000
  C   C735      1.0  0.64144  0.91277  0.80632  1.0000
  H   H1295     1.0  0.49154  0.93774  0.52776  1.0000
  C   C736      1.0  0.48286  0.85742  0.65995  1.0000
  H   H1296     1.0  0.34025  0.76844  0.99940  1.0000
  C   C737      1.0  0.49271  0.98438  0.65100  1.0000
  H   H1297     1.0  0.55230  0.51266  0.57903  1.0000
  C   C738      1.0  0.34687  0.78790  0.77171  1.0000
  H   H1298     1.0  0.64519  0.71636  0.84972  1.0000
  C   C739      1.0  0.33963  0.54458  0.77758  1.0000
  N   N39       1.0  0.51553  0.93417  0.64786  1.0000
  C   C740      1.0  0.52352  0.93490  0.60989  1.0000
  S   S175      1.0  0.34387  0.98547  0.73430  1.0000
  C   C741      1.0  0.48594  0.88703  0.64338  1.0000
  S   S176      1.0  0.33279  0.70588  0.90277  1.0000
  H   H1299     1.0  0.49499  0.50270  0.64492  1.0000
  C   C742      1.0  0.48703  0.58510  0.53852  1.0000
  C   C743      1.0  0.57246  0.59919  0.52993  1.0000
  H   H1300     1.0  0.50351  0.60217  0.54099  1.0000
  H   H1301     1.0  0.53581  0.91535  0.60309  1.0000
  C   C744      1.0  0.49863  0.93818  0.58332  1.0000
  H   H1302     1.0  0.49040  0.88356  0.61557  1.0000
  H   H1303     1.0  0.34171  0.85874  0.81475  1.0000
  H   H1304     1.0  0.51698  0.91165  0.54282  1.0000
  H   H1305     1.0  0.64799  0.63315  0.70700  1.0000
  H   H1306     1.0  0.41513  0.50759  0.64453  1.0000
  H   H1307     1.0  0.65315  0.65586  0.66942  1.0000
  H   H1308     1.0  0.48928  0.95988  0.58461  1.0000
  S   S177      1.0  0.64735  0.56363  0.72199  1.0000
  H   H1309     1.0  0.58921  0.97515  0.78505  1.0000
  H   H1310     1.0  0.44149  0.97650  0.75025  1.0000
  H   H1311     1.0  0.33362  0.58534  0.80292  1.0000
  C   C745      1.0  0.43619  0.50203  0.63296  1.0000
  H   H1312     1.0  0.39297  0.99023  0.78086  1.0000
  C   C746      1.0  0.32855  0.51358  0.86540  1.0000
  S   S178      1.0  0.34600  0.49256  0.74550  1.0000
  H   H1313     1.0  0.32921  0.99081  0.87625  1.0000
  H   H1314     1.0  0.44991  0.99122  0.62955  1.0000
  H   H1315     1.0  0.32741  0.73224  0.00220  1.0000
  C   C747      1.0  0.35070  0.94627  0.52896  1.0000
  C   C748      1.0  0.32819  0.98589  0.84820  1.0000
  H   H1316     1.0  0.65978  0.55960  0.80063  1.0000
  H   H1317     1.0  0.32761  0.78556  0.75657  1.0000
  H   H1318     1.0  0.66000  0.72711  0.74803  1.0000
  H   H1319     1.0  0.32696  0.94519  0.52682  1.0000
  H   H1320     1.0  0.35981  0.92535  0.52136  1.0000
  Fe  Fe90      1.0  0.69863  0.37110  0.23674  1.0000
  C   C749      1.0  0.98063  0.99977  0.38583  1.0000
  S   S179      1.0  0.73780  0.39718  0.25320  1.0000
  H   H1321     1.0  0.75107  0.33847  0.27300  1.0000
  C   C750      1.0  0.67829  0.22244  0.06471  1.0000
  H   H1322     1.0  0.95523  0.33498  0.20359  1.0000
  S   S180      1.0  0.69956  0.33736  0.19573  1.0000
  Fe  Fe91      1.0  0.95238  0.35412  0.34099  1.0000
  S   S181      1.0  0.92054  0.38105  0.31168  1.0000
  H   H1323     1.0  0.91202  0.46845  0.27244  1.0000
  Fe  Fe92      1.0  0.92469  0.36764  0.41184  1.0000
  S   S182      1.0  0.89080  0.39550  0.38808  1.0000
  S   S183      1.0  0.93439  0.36014  0.46891  1.0000
  Fe  Fe93      1.0  0.88699  0.36195  0.34678  1.0000
  S   S184      1.0  0.84613  0.34062  0.32739  1.0000
  Fe  Fe94      1.0  0.92684  0.41242  0.35498  1.0000
  S   S185      1.0  0.92959  0.46008  0.34699  1.0000
  S   S186      1.0  0.91841  0.33243  0.37316  1.0000
  S   S187      1.0  0.96112  0.38701  0.38156  1.0000
  Fe  Fe95      1.0  0.80061  0.13235  0.15319  1.0000
  S   S188      1.0  0.83572  0.16089  0.17297  1.0000
  S   S189      1.0  0.78792  0.12498  0.09675  1.0000
  Fe  Fe96      1.0  0.77907  0.11761  0.22720  1.0000
  S   S190      1.0  0.81314  0.14473  0.25236  1.0000
  S   S191      1.0  0.74843  0.09068  0.26052  1.0000
  Fe  Fe97      1.0  0.80249  0.17645  0.21057  1.0000
  S   S192      1.0  0.79950  0.22322  0.22343  1.0000
  Fe  Fe98      1.0  0.84382  0.12690  0.21329  1.0000
  S   S193      1.0  0.88860  0.10946  0.22466  1.0000
  S   S194      1.0  0.76650  0.15067  0.18780  1.0000
  S   S195      1.0  0.81067  0.09684  0.19102  1.0000
  C   C751      1.0  0.80887  0.13512  0.06016  1.0000
  C   C752      1.0  0.83521  0.14922  0.06362  1.0000
  C   C753      1.0  0.91372  0.37371  0.50374  1.0000
  H   H1324     1.0  0.83191  0.09606  0.31857  1.0000
  H   H1325     1.0  0.84332  0.15412  0.08913  1.0000
  H   H1326     1.0  0.70939  0.21918  0.16038  1.0000
  H   H1327     1.0  0.66897  0.18080  0.18863  1.0000
  C   C754      1.0  0.92832  0.25358  0.41857  1.0000
  H   H1328     1.0  0.96186  0.27047  0.28633  1.0000
  C   C755      1.0  0.70106  0.12699  0.26194  1.0000
  C   C756      1.0  0.71430  0.10252  0.27540  1.0000
  C   C757      1.0  0.70005  0.08683  0.30146  1.0000
  H   H1329     1.0  0.84445  0.25295  0.34789  1.0000
  C   C758      1.0  0.86415  0.26248  0.33641  1.0000
  H   H1330     1.0  0.71174  0.13937  0.24202  1.0000
  H   H1331     1.0  0.71024  0.06820  0.31251  1.0000
  H   H1332     1.0  0.94585  0.23971  0.35449  1.0000
  C   C759      1.0  0.95852  0.14379  0.29791  1.0000
  C   C760      1.0  0.93195  0.15788  0.29564  1.0000
  C   C761      1.0  0.91029  0.14796  0.27310  1.0000
  C   C762      1.0  0.91534  0.12427  0.25201  1.0000
  C   C763      1.0  0.94221  0.11080  0.25364  1.0000
  C   C764      1.0  0.96353  0.12021  0.27677  1.0000
  H   H1333     1.0  0.92792  0.17623  0.31178  1.0000
  H   H1334     1.0  0.88966  0.15844  0.27225  1.0000
  H   H1335     1.0  0.94642  0.09280  0.23703  1.0000
  H   H1336     1.0  0.66847  0.37075  0.04250  1.0000
  C   C765      1.0  0.67499  0.22456  0.32069  1.0000
  H   H1337     1.0  0.86185  0.45509  0.48511  1.0000
  H   H1338     1.0  0.78569  0.01027  0.27052  1.0000
  H   H1339     1.0  0.87469  0.37843  0.47470  1.0000
  H   H1340     1.0  0.74533  0.46532  0.24695  1.0000
  H   H1341     1.0  0.66296  0.23226  0.18362  1.0000
  H   H1342     1.0  0.84024  0.28243  0.29593  1.0000
  H   H1343     1.0  0.98341  0.05813  0.25488  1.0000
  H   H1344     1.0  0.73070  0.31566  0.33646  1.0000
  H   H1345     1.0  0.94744  0.48266  0.27604  1.0000
  C   C766      1.0  0.76183  0.20141  0.05926  1.0000
  H   H1346     1.0  0.87661  0.49141  0.33052  1.0000
  C   C767      1.0  0.70760  0.25498  0.23576  1.0000
  C   C768      1.0  0.73050  0.27430  0.23536  1.0000
  C   C769      1.0  0.75867  0.26438  0.23176  1.0000
  C   C770      1.0  0.76410  0.23511  0.22890  1.0000
  C   C771      1.0  0.74123  0.21572  0.23054  1.0000
  C   C772      1.0  0.71300  0.22565  0.23359  1.0000
  H   H1347     1.0  0.72667  0.29686  0.23849  1.0000
  H   H1348     1.0  0.77620  0.27946  0.23120  1.0000
  H   H1349     1.0  0.74525  0.19309  0.22998  1.0000
  H   H1350     1.0  0.69539  0.21057  0.23464  1.0000
  C   C773      1.0  0.76762  0.38136  0.27436  1.0000
  C   C774      1.0  0.79088  0.39863  0.28452  1.0000
  C   C775      1.0  0.81504  0.38664  0.30108  1.0000
  C   C776      1.0  0.81609  0.35722  0.30765  1.0000
  C   C777      1.0  0.79281  0.34002  0.29755  1.0000
  C   C778      1.0  0.76870  0.35198  0.28098  1.0000
  H   H1351     1.0  0.79026  0.42136  0.27943  1.0000
  H   H1352     1.0  0.83285  0.40010  0.30864  1.0000
  H   H1353     1.0  0.79367  0.31723  0.30213  1.0000
  H   H1354     1.0  0.93275  0.44494  0.42116  1.0000
  C   C779      1.0  0.93355  0.45137  0.44887  1.0000
  H   H1355     1.0  0.67871  0.22689  0.29250  1.0000
  H   H1356     1.0  0.87177  0.16739  0.03705  1.0000
  H   H1357     1.0  0.69900  0.01275  0.29751  1.0000
  H   H1358     1.0  0.92823  0.02127  0.36982  1.0000
  H   H1359     1.0  0.67974  0.14710  0.17097  1.0000
  H   H1360     1.0  0.95662  0.28944  0.40931  1.0000
  H   H1361     1.0  0.95283  0.06004  0.30615  1.0000
  H   H1362     1.0  0.86277  0.10914  0.29543  1.0000
  C   C780      1.0  0.74587  0.00749  0.17746  1.0000
  H   H1363     1.0  0.97854  0.02985  0.22398  1.0000
  C   C781      1.0  0.87000  0.06981  0.32445  1.0000
  H   H1364     1.0  0.88713  0.05060  0.27756  1.0000
  H   H1365     1.0  0.76124  0.19798  0.31946  1.0000
  H   H1366     1.0  0.77858  0.04103  0.17996  1.0000
  H   H1367     1.0  0.90844  0.07762  0.29608  1.0000
  H   H1368     1.0  0.95930  0.02399  0.31844  1.0000
  C   C782      1.0  0.97725  0.03536  0.25184  1.0000
  H   H1369     1.0  0.74012  0.13704  0.33580  1.0000
  H   H1370     1.0  0.97802  0.41108  0.44715  1.0000
  H   H1371     1.0  0.87648  0.99961  0.35921  1.0000
  H   H1372     1.0  0.84300  0.07873  0.27931  1.0000
  H   H1373     1.0  0.85646  0.05248  0.33501  1.0000
  H   H1374     1.0  0.70138  0.17153  0.33060  1.0000
  H   H1375     1.0  0.94860  0.23400  0.28999  1.0000
  C   C783      1.0  0.86728  0.44836  0.45842  1.0000
  H   H1376     1.0  0.91647  0.25663  0.39394  1.0000
  H   H1377     1.0  0.66342  0.20377  0.43408  1.0000
  C   C784      1.0  0.67374  0.13528  0.27401  1.0000
  H   H1378     1.0  0.70293  0.16997  0.12147  1.0000
  H   H1379     1.0  0.69937  0.40887  0.34675  1.0000
  H   H1380     1.0  0.98455  0.22383  0.45633  1.0000
  C   C785      1.0  0.69927  0.21641  0.37723  1.0000
  H   H1381     1.0  0.75652  0.04449  0.12179  1.0000
  C   C786      1.0  0.82653  0.01270  0.24533  1.0000
  N   N40       1.0  0.71457  0.49070  0.27559  1.0000
  C   C787      1.0  0.88493  0.38122  0.49956  1.0000
  H   H1382     1.0  0.87875  0.42779  0.45907  1.0000
  N   N41       1.0  0.70301  0.21764  0.33838  1.0000
  H   H1383     1.0  0.73156  0.43919  0.31288  1.0000
  H   H1384     1.0  0.66361  0.15405  0.26311  1.0000
  C   C788      1.0  0.69765  0.21471  0.13584  1.0000
  C   C789      1.0  0.68810  0.26631  0.13414  1.0000
  H   H1385     1.0  0.90844  0.07800  0.41368  1.0000
  H   H1386     1.0  0.92712  0.43911  0.22209  1.0000
  H   H1387     1.0  0.68942  0.40672  0.30187  1.0000
  H   H1388     1.0  0.88890  0.25956  0.44764  1.0000
  H   H1389     1.0  0.97235  0.31438  0.23767  1.0000
  C   C790      1.0  0.71159  0.27500  0.10774  1.0000
  C   C791      1.0  0.72493  0.30381  0.11705  1.0000
  H   H1390     1.0  0.92109  0.26529  0.47252  1.0000
  C   C792      1.0  0.90330  0.00612  0.31244  1.0000
  H   H1391     1.0  0.75542  0.28933  0.35296  1.0000
  C   C793      1.0  0.70939  0.44708  0.31692  1.0000
  H   H1392     1.0  0.71471  0.21612  0.11598  1.0000
  H   H1393     1.0  0.83582  0.01765  0.21948  1.0000
  H   H1394     1.0  0.69713  0.26845  0.16076  1.0000
  H   H1395     1.0  0.66252  0.08358  0.33437  1.0000
  H   H1396     1.0  0.94464  0.09171  0.41481  1.0000
  H   H1397     1.0  0.76006  0.22257  0.07192  1.0000
  H   H1398     1.0  0.97042  0.00715  0.40926  1.0000
  H   H1399     1.0  0.70024  0.44806  0.26261  1.0000
  H   H1400     1.0  0.71942  0.22293  0.39060  1.0000
  H   H1401     1.0  0.75665  0.47470  0.28885  1.0000
  C   C794      1.0  0.91502  0.46119  0.51978  1.0000
  H   H1402     1.0  0.85680  0.00865  0.32017  1.0000
  C   C795      1.0  0.72036  0.00328  0.30300  1.0000
  H   H1403     1.0  0.72925  0.25928  0.10682  1.0000
  H   H1404     1.0  0.70199  0.27750  0.08161  1.0000
  H   H1405     1.0  0.70827  0.32076  0.11749  1.0000
  H   H1406     1.0  0.73556  0.30261  0.14275  1.0000
  H   H1407     1.0  0.74127  0.30988  0.09742  1.0000
  H   H1408     1.0  0.87799  0.08253  0.34663  1.0000
  H   H1409     1.0  0.96426  0.20865  0.39648  1.0000
  C   C796      1.0  0.71389  0.27231  0.33665  1.0000
  H   H1410     1.0  0.74438  0.23846  0.34416  1.0000
  H   H1411     1.0  0.70978  0.00622  0.22933  1.0000
  C   C797      1.0  0.85080  0.08954  0.30303  1.0000
  H   H1412     1.0  0.95756  0.27585  0.34988  1.0000
  H   H1413     1.0  0.80466  0.48973  0.26653  1.0000
  H   H1414     1.0  0.66628  0.24532  0.32959  1.0000
  N   N42       1.0  0.88541  0.28759  0.24276  1.0000
  C   C798      1.0  0.87740  0.26067  0.22367  1.0000
  C   C799      1.0  0.86561  0.31194  0.23264  1.0000
  C   C800      1.0  0.91537  0.29596  0.23153  1.0000
  C   C801      1.0  0.88577  0.28312  0.28150  1.0000
  C   C802      1.0  0.85919  0.26840  0.29791  1.0000
  C   C803      1.0  0.89704  0.23440  0.23003  1.0000
  C   C804      1.0  0.92726  0.32415  0.24712  1.0000
  C   C805      1.0  0.83383  0.30469  0.22436  1.0000
  C   C806      1.0  0.81743  0.33154  0.21335  1.0000
  C   C807      1.0  0.88420  0.20747  0.21409  1.0000
  H   H1415     1.0  0.75345  0.07732  0.14551  1.0000
  H   H1416     1.0  0.87715  0.26491  0.19526  1.0000
  H   H1417     1.0  0.85516  0.25389  0.23006  1.0000
  H   H1418     1.0  0.86547  0.32867  0.25307  1.0000
  H   H1419     1.0  0.87370  0.32291  0.20886  1.0000
  H   H1420     1.0  0.91638  0.29783  0.20276  1.0000
  H   H1421     1.0  0.93109  0.27921  0.23870  1.0000
  H   H1422     1.0  0.90498  0.27061  0.28931  1.0000
  H   H1423     1.0  0.88830  0.30392  0.29498  1.0000
  H   H1424     1.0  0.85424  0.24758  0.28573  1.0000
  H   H1425     1.0  0.91835  0.23773  0.21783  1.0000
  H   H1426     1.0  0.90009  0.23016  0.25804  1.0000
  H   H1427     1.0  0.92990  0.32196  0.27555  1.0000
  H   H1428     1.0  0.91282  0.34247  0.24188  1.0000
  H   H1429     1.0  0.83209  0.28949  0.20250  1.0000
  H   H1430     1.0  0.82288  0.29527  0.24705  1.0000
  H   H1431     1.0  0.82549  0.33960  0.18807  1.0000
  H   H1432     1.0  0.79423  0.32653  0.21061  1.0000
  H   H1433     1.0  0.81982  0.34873  0.23281  1.0000
  H   H1434     1.0  0.86384  0.20162  0.22739  1.0000
  H   H1435     1.0  0.87988  0.21078  0.18608  1.0000
  H   H1436     1.0  0.89940  0.18937  0.21690  1.0000
  H   H1437     1.0  0.88214  0.24726  0.34005  1.0000
  H   H1438     1.0  0.93159  0.04264  0.24914  1.0000
  H   H1439     1.0  0.86902  0.28263  0.35035  1.0000
  N   N43       1.0  0.97913  0.25241  0.39063  1.0000
  C   C808      1.0  0.68546  0.17011  0.17266  1.0000
  H   H1440     1.0  0.79326  0.48089  0.22305  1.0000
  S   S196      1.0  0.98539  0.15678  0.32632  1.0000
  H   H1441     1.0  0.73010  0.24038  0.30173  1.0000
  H   H1442     1.0  0.90108  0.44290  0.51332  1.0000
  H   H1443     1.0  0.68302  0.23240  0.38546  1.0000
  C   C809      1.0  0.94314  0.44838  0.24014  1.0000
  C   C810      1.0  0.71480  0.19027  0.32350  1.0000
  H   H1444     1.0  0.97777  0.17260  0.44131  1.0000
  H   H1445     1.0  0.74483  0.05107  0.19960  1.0000
  H   H1446     1.0  0.92899  0.23046  0.42499  1.0000
  C   C811      1.0  0.95898  0.26635  0.41603  1.0000
  H   H1447     1.0  0.67163  0.28331  0.13163  1.0000
  H   H1448     1.0  0.69941  0.23304  0.06250  1.0000
  C   C812      1.0  0.93116  0.07303  0.40762  1.0000
  H   H1449     1.0  0.93817  0.05432  0.42327  1.0000
  C   C813      1.0  0.74626  0.05465  0.14455  1.0000
  H   H1450     1.0  0.77841  0.11799  0.02371  1.0000
  C   C814      1.0  0.75491  0.03935  0.17801  1.0000
  C   C815      1.0  0.69088  0.18701  0.39330  1.0000
  H   H1451     1.0  0.75284  0.15060  0.29452  1.0000
  C   C816      1.0  0.96580  0.45500  0.45830  1.0000
  C   C817      1.0  0.95667  0.33161  0.23200  1.0000
  H   H1452     1.0  0.90949  0.29183  0.44137  1.0000
  S   S197      1.0  0.98647  0.32555  0.31692  1.0000
  H   H1453     1.0  0.98401  0.10943  0.27791  1.0000
  H   H1454     1.0  0.70067  0.19927  0.44643  1.0000
  C   C818      1.0  0.98437  0.22134  0.39923  1.0000
  N   N44       1.0  0.67481  0.23702  0.12978  1.0000
  S   S198      1.0  0.67223  0.26702  0.24013  1.0000
  C   C819      1.0  0.79377  0.01332  0.24375  1.0000
  H   H1455     1.0  0.74746  0.18604  0.07285  1.0000
  C   C820      1.0  0.96520  0.25369  0.35532  1.0000
  H   H1456     1.0  0.96795  0.26607  0.44260  1.0000
  C   C821      1.0  0.91099  0.26851  0.44676  1.0000
  H   H1457     1.0  0.99043  0.22163  0.32654  1.0000
  H   H1458     1.0  0.74841  0.29184  0.30696  1.0000
  C   C822      1.0  0.69038  0.42111  0.32459  1.0000
  H   H1459     1.0  0.75829  0.99816  0.15575  1.0000
  H   H1460     1.0  0.92806  0.08615  0.35417  1.0000
  H   H1461     1.0  0.94823  0.43213  0.26030  1.0000
  H   H1462     1.0  0.95803  0.06353  0.36443  1.0000
  H   H1463     1.0  0.92501  0.43244  0.46296  1.0000
  C   C823      1.0  0.72401  0.24133  0.32955  1.0000
  H   H1464     1.0  0.78728  0.03497  0.23531  1.0000
  H   H1465     1.0  0.89630  0.04074  0.37101  1.0000
  N   N45       1.0  0.91441  0.03592  0.31951  1.0000
  C   C824      1.0  0.91748  0.04008  0.35802  1.0000
  H   H1466     1.0  0.82655  0.42630  0.45305  1.0000
  C   C825      1.0  0.94414  0.03793  0.30386  1.0000
  C   C826      1.0  0.89557  0.05836  0.30279  1.0000
  H   H1467     1.0  0.96476  0.35163  0.24396  1.0000
  C   C827      1.0  0.93476  0.06696  0.36909  1.0000
  C   C828      1.0  0.94677  0.02996  0.26510  1.0000
  H   H1468     1.0  0.70929  0.46071  0.34026  1.0000
  C   C829      1.0  0.85130  0.15673  0.03401  1.0000
  C   C830      1.0  0.74499  0.48319  0.26590  1.0000
  C   C831      1.0  0.97787  0.18084  0.21055  1.0000
  C   C832      1.0  0.73870  0.29351  0.33311  1.0000
  C   C833      1.0  0.96805  0.24779  0.29015  1.0000
  H   H1469     1.0  0.74990  0.18578  0.36158  1.0000
  C   C834      1.0  0.75440  0.15297  0.32304  1.0000
  C   C835      1.0  0.96412  0.47485  0.35143  1.0000
  H   H1470     1.0  0.98419  0.17347  0.18436  1.0000
  H   H1471     1.0  0.96086  0.16629  0.22049  1.0000
  H   H1472     1.0  0.70472  0.27427  0.36302  1.0000
  C   C836      1.0  0.73220  0.00314  0.23868  1.0000
  H   H1473     1.0  0.89911  0.00330  0.28433  1.0000
  H   H1474     1.0  0.78420  0.19354  0.06191  1.0000
  C   C837      1.0  0.74631  0.18333  0.33339  1.0000
  H   H1475     1.0  0.99286  0.02192  0.26628  1.0000
  H   H1476     1.0  0.71389  0.19096  0.29471  1.0000
  H   H1477     1.0  0.84279  0.43638  0.41248  1.0000
  N   N46       1.0  0.91502  0.47732  0.45477  1.0000
  H   H1478     1.0  0.83425  0.02907  0.26380  1.0000
  H   H1479     1.0  0.77688  0.14850  0.33081  1.0000
  C   C838      1.0  0.93121  0.47511  0.25742  1.0000
  C   C839      1.0  0.98843  0.45750  0.35253  1.0000
  H   H1480     1.0  0.97766  0.46366  0.43553  1.0000
  C   C840      1.0  0.67289  0.09534  0.31378  1.0000
  C   C841      1.0  0.91350  0.48572  0.49246  1.0000
  H   H1481     1.0  0.72258  0.05434  0.14131  1.0000
  H   H1482     1.0  0.67530  0.46754  0.28726  1.0000
  C   C842      1.0  0.69868  0.46346  0.28438  1.0000
  H   H1483     1.0  0.73953  0.02498  0.24551  1.0000
  H   H1484     1.0  0.67743  0.16858  0.44236  1.0000
  H   H1485     1.0  0.70924  0.17202  0.39198  1.0000
  C   C843      1.0  0.68264  0.18998  0.43138  1.0000
  H   H1486     1.0  0.96878  0.20271  0.20868  1.0000
  C   C844      1.0  0.98420  0.24439  0.32427  1.0000
  C   C845      1.0  0.66263  0.22609  0.03024  1.0000
  C   C846      1.0  0.83891  0.44335  0.43951  1.0000
  H   H1487     1.0  0.96319  0.45351  0.22582  1.0000
  C   C847      1.0  0.68723  0.18302  0.13620  1.0000
  H   H1488     1.0  0.69748  0.27887  0.31732  1.0000
  C   C848      1.0  0.79872  0.12895  0.02669  1.0000
  H   H1489     1.0  0.88735  0.46530  0.41225  1.0000
  H   H1490     1.0  0.72284  0.00633  0.16967  1.0000
  C   C849      1.0  0.69904  0.48917  0.21116  1.0000
  H   H1491     1.0  0.68210  0.19925  0.06854  1.0000
  H   H1492     1.0  0.66829  0.42787  0.33131  1.0000
  H   H1493     1.0  0.94231  0.00688  0.26121  1.0000
  H   H1494     1.0  0.72105  0.48434  0.20211  1.0000
  C   C850      1.0  0.87527  0.99670  0.33081  1.0000
  H   H1495     1.0  0.67266  0.17680  0.37982  1.0000
  H   H1496     1.0  0.98644  0.43473  0.34922  1.0000
  H   H1497     1.0  0.66631  0.18023  0.12298  1.0000
  H   H1498     1.0  0.73601  0.02074  0.30804  1.0000
  S   S199      1.0  0.67050  0.34598  0.27316  1.0000
  S   S200      1.0  0.66121  0.39381  0.21216  1.0000
  H   H1499     1.0  0.87209  0.49095  0.44018  1.0000
  C   C851      1.0  0.97965  0.42665  0.46856  1.0000
  H   H1500     1.0  0.70649  0.17181  0.18592  1.0000
  H   H1501     1.0  0.68699  0.46875  0.21354  1.0000
  H   H1502     1.0  0.90476  0.48902  0.21555  1.0000
  H   H1503     1.0  0.96885  0.47014  0.47995  1.0000
  H   H1504     1.0  0.96904  0.41742  0.49185  1.0000
  C   C852      1.0  0.88551  0.47148  0.44005  1.0000
  H   H1505     1.0  0.98205  0.24142  0.26833  1.0000
  H   H1506     1.0  0.96183  0.00254  0.49347  1.0000
  Fe  Fe99      1.0  0.66856  0.31408  0.23020  1.0000
  H   H1507     1.0  0.82583  0.46315  0.43921  1.0000
  H   H1508     1.0  0.66039  0.24913  0.02375  1.0000
  Fe  Fe100     1.0  0.86660  0.19493  0.84203  1.0000
  S   S201      1.0  0.84146  0.16635  0.80654  1.0000
  S   S202      1.0  0.89295  0.23445  0.82773  1.0000
  Fe  Fe101     1.0  0.85313  0.15752  0.90656  1.0000
  S   S203      1.0  0.82732  0.12562  0.87596  1.0000
  S   S204      1.0  0.86306  0.15973  0.96437  1.0000
  Fe  Fe102     1.0  0.86166  0.12942  0.83505  1.0000
  S   S205      1.0  0.88385  0.09491  0.80340  1.0000
  Fe  Fe103     1.0  0.80927  0.16464  0.84965  1.0000
  S   S206      1.0  0.76182  0.16811  0.84045  1.0000
  S   S207      1.0  0.88936  0.15822  0.86778  1.0000
  S   S208      1.0  0.83265  0.19617  0.88286  1.0000
  Fe  Fe104     1.0  0.87433  0.41120  0.65181  1.0000
  S   S209      1.0  0.89965  0.37783  0.68034  1.0000
  S   S210      1.0  0.86131  0.40969  0.59478  1.0000
  Fe  Fe105     1.0  0.86368  0.44667  0.71857  1.0000
  S   S211      1.0  0.88805  0.41550  0.75210  1.0000
  H   H1509     1.0  0.91378  0.16876  0.73848  1.0000
  Fe  Fe106     1.0  0.91945  0.41535  0.70777  1.0000
  S   S212      1.0  0.96728  0.41654  0.71553  1.0000
  Fe  Fe107     1.0  0.86625  0.38031  0.72218  1.0000
  S   S213      1.0  0.84279  0.34107  0.74399  1.0000
  S   S214      1.0  0.89675  0.44874  0.67610  1.0000
  S   S215      1.0  0.83918  0.41147  0.69183  1.0000
  H   H1510     1.0  0.69162  0.02332  0.71587  1.0000
  S   S216      1.0  0.72108  0.29401  0.86915  1.0000
  C   C853      1.0  0.71062  0.04154  0.76252  1.0000
  H   H1511     1.0  0.73974  0.99901  0.80320  1.0000
  H   H1512     1.0  0.93443  0.03082  0.61485  1.0000
  H   H1513     1.0  0.91717  0.00354  0.58888  1.0000
  H   H1514     1.0  0.96064  0.02372  0.71876  1.0000
  H   H1515     1.0  0.67358  0.01899  0.87354  1.0000
  C   C854      1.0  0.75014  0.20336  0.84505  1.0000
  C   C855      1.0  0.76979  0.22596  0.84447  1.0000
  C   C856      1.0  0.76065  0.25381  0.85142  1.0000
  C   C857      1.0  0.73170  0.25927  0.85822  1.0000
  C   C858      1.0  0.71183  0.23683  0.85701  1.0000
  C   C859      1.0  0.72105  0.20887  0.85063  1.0000
  H   H1516     1.0  0.79211  0.22202  0.83880  1.0000
  H   H1517     1.0  0.77620  0.27094  0.85199  1.0000
  H   H1518     1.0  0.68938  0.24089  0.86113  1.0000
  H   H1519     1.0  0.70573  0.19144  0.85076  1.0000
  C   C860      1.0  0.86971  0.06143  0.78996  1.0000
  C   C861      1.0  0.84391  0.05043  0.80302  1.0000
  C   C862      1.0  0.83421  0.02318  0.79267  1.0000
  H   H1520     1.0  0.70309  0.07613  0.87790  1.0000
  C   C863      1.0  0.87579  0.01777  0.75602  1.0000
  C   C864      1.0  0.88537  0.04505  0.76610  1.0000
  H   H1521     1.0  0.83161  0.06280  0.82130  1.0000
  C   C865      1.0  0.98945  0.01059  0.61831  1.0000
  H   H1522     1.0  0.73099  0.21097  0.01965  1.0000
  H   H1523     1.0  0.90492  0.05356  0.75505  1.0000
  C   C866      1.0  0.87883  0.26377  0.80404  1.0000
  C   C867      1.0  0.89576  0.28844  0.79937  1.0000
  C   C868      1.0  0.88519  0.31221  0.78078  1.0000
  C   C869      1.0  0.85772  0.31135  0.76627  1.0000
  C   C870      1.0  0.84092  0.28655  0.77072  1.0000
  C   C871      1.0  0.85132  0.26294  0.78965  1.0000
  H   H1524     1.0  0.91700  0.28933  0.81054  1.0000
  H   H1525     1.0  0.89806  0.33136  0.77810  1.0000
  H   H1526     1.0  0.81972  0.28557  0.75943  1.0000
  H   H1527     1.0  0.83811  0.24406  0.79297  1.0000
  H   H1528     1.0  0.95333  0.01431  0.55485  1.0000
  N   N47       1.0  0.97727  0.03299  0.82353  1.0000
  H   H1529     1.0  0.80720  0.13082  0.97156  1.0000
  H   H1530     1.0  0.72909  0.48341  0.73595  1.0000
  C   C872      1.0  0.91058  0.38708  0.56487  1.0000
  C   C873      1.0  0.88188  0.39500  0.56055  1.0000
  H   H1531     1.0  0.70264  0.29291  0.94628  1.0000
  H   H1532     1.0  0.92063  0.38928  0.58996  1.0000
  H   H1533     1.0  0.82987  0.30515  0.84952  1.0000
  C   C874      1.0  0.95947  0.08017  0.79520  1.0000
  H   H1534     1.0  0.94660  0.11535  0.76191  1.0000
  H   H1535     1.0  0.66832  0.42726  0.76721  1.0000
  N   N48       1.0  0.76695  0.35399  0.79610  1.0000
  C   C875      1.0  0.78315  0.38175  0.79132  1.0000
  C   C876      1.0  0.78474  0.33297  0.81693  1.0000
  C   C877      1.0  0.76184  0.34128  0.76074  1.0000
  C   C878      1.0  0.76898  0.40473  0.76794  1.0000
  C   C879      1.0  0.74809  0.31088  0.76024  1.0000
  C   C880      1.0  0.80634  0.34517  0.84372  1.0000
  C   C881      1.0  0.81914  0.32131  0.86602  1.0000
  C   C882      1.0  0.74882  0.29830  0.72385  1.0000
  H   H1536     1.0  0.80465  0.37734  0.78000  1.0000
  H   H1537     1.0  0.78748  0.39207  0.81654  1.0000
  H   H1538     1.0  0.77052  0.31746  0.83055  1.0000
  H   H1539     1.0  0.79834  0.31991  0.79948  1.0000
  H   H1540     1.0  0.78241  0.34041  0.74613  1.0000
  H   H1541     1.0  0.74731  0.35503  0.74512  1.0000
  H   H1542     1.0  0.74959  0.35765  0.86765  1.0000
  H   H1543     1.0  0.76757  0.39728  0.74078  1.0000
  H   H1544     1.0  0.75931  0.29565  0.77761  1.0000
  H   H1545     1.0  0.82442  0.35590  0.83002  1.0000
  H   H1546     1.0  0.79631  0.36091  0.86118  1.0000
  H   H1547     1.0  0.94855  0.37041  0.54022  1.0000
  H   H1548     1.0  0.80212  0.31071  0.88167  1.0000
  S   S217      1.0  0.83897  0.48653  0.73601  1.0000
  H   H1549     1.0  0.73717  0.31234  0.70537  1.0000
  C   C883      1.0  0.70764  0.37501  0.86274  1.0000
  H   H1550     1.0  0.74040  0.21655  0.92093  1.0000
  H   H1551     1.0  0.70898  0.44082  0.87201  1.0000
  H   H1552     1.0  0.73574  0.13257  0.72595  1.0000
  H   H1553     1.0  0.67492  0.21559  0.00929  1.0000
  H   H1554     1.0  0.98455  0.10737  0.76028  1.0000
  C   C884      1.0  0.95159  0.19176  0.78747  1.0000
  H   H1555     1.0  0.72148  0.25569  0.00785  1.0000
  Fe  Fe108     1.0  0.67367  0.29866  0.87895  1.0000
  C   C885      1.0  0.94868  0.01900  0.81505  1.0000
  C   C886      1.0  0.72291  0.13460  0.74986  1.0000
  C   C887      1.0  0.77430  0.22326  0.00071  1.0000
  H   H1556     1.0  0.72868  0.12169  0.80372  1.0000
  H   H1557     1.0  0.93073  0.03063  0.82778  1.0000
  H   H1558     1.0  0.69246  0.13469  0.69172  1.0000
  C   C888      1.0  0.68938  0.02610  0.78735  1.0000
  H   H1559     1.0  0.99040  0.00806  0.54616  1.0000
  H   H1560     1.0  0.68967  0.12226  0.84916  1.0000
  H   H1561     1.0  0.93643  0.19089  0.80981  1.0000
  H   H1562     1.0  0.95425  0.16924  0.77943  1.0000
  H   H1563     1.0  0.70695  0.48340  0.79113  1.0000
  C   C889      1.0  0.97572  0.00639  0.72233  1.0000
  H   H1564     1.0  0.96455  0.24827  0.79168  1.0000
  C   C890      1.0  0.92638  0.37646  0.53660  1.0000
  H   H1565     1.0  0.93820  0.46955  0.73010  1.0000
  H   H1566     1.0  0.98436  0.19514  0.85375  1.0000
  H   H1567     1.0  0.89378  0.18973  0.76937  1.0000
  C   C891      1.0  0.67914  0.21983  0.76937  1.0000
  H   H1568     1.0  0.70241  0.12269  0.74670  1.0000
  C   C892      1.0  0.96272  0.09792  0.76208  1.0000
  H   H1569     1.0  0.88618  0.48823  0.78613  1.0000
  C   C893      1.0  0.85026  0.00657  0.76950  1.0000
  H   H1570     1.0  0.75825  0.99521  0.87944  1.0000
  C   C894      1.0  0.70771  0.44938  0.84520  1.0000
  H   H1571     1.0  0.70281  0.06351  0.75701  1.0000
  H   H1572     1.0  0.93721  0.32352  0.73694  1.0000
  H   H1573     1.0  0.77748  0.01471  0.84619  1.0000
  H   H1574     1.0  0.79534  0.21193  0.00133  1.0000
  H   H1575     1.0  0.80918  0.42767  0.75874  1.0000
  H   H1576     1.0  0.74251  0.47048  0.79174  1.0000
  H   H1577     1.0  0.70796  0.38425  0.88915  1.0000
  H   H1578     1.0  0.95658  0.23308  0.83276  1.0000
  H   H1579     1.0  0.89775  0.20221  0.72552  1.0000
  H   H1580     1.0  0.77522  0.48856  0.70374  1.0000
  C   C895      1.0  0.96097  0.47377  0.72833  1.0000
  C   C896      1.0  0.71302  0.02581  0.72810  1.0000
  H   H1581     1.0  0.72395  0.37153  0.79572  1.0000
  H   H1582     1.0  0.75601  0.13614  0.92468  1.0000
  H   H1583     1.0  0.73842  0.27692  0.72403  1.0000
  C   C897      1.0  0.93605  0.20692  0.75697  1.0000
  C   C898      1.0  0.67920  0.15349  0.68522  1.0000
  C   C899      1.0  0.81491  0.13634  0.99705  1.0000
  C   C900      1.0  0.73997  0.11989  0.77854  1.0000
  C   C901      1.0  0.70408  0.21527  0.74342  1.0000
  C   C902      1.0  0.73459  0.00059  0.83117  1.0000
  C   C903      1.0  0.98142  0.33224  0.75124  1.0000
  H   H1584     1.0  0.73511  0.17536  0.77283  1.0000
  H   H1585     1.0  0.95153  0.01592  0.88965  1.0000
  H   H1586     1.0  0.94415  0.02059  0.78677  1.0000
  H   H1587     1.0  0.72887  0.16092  0.91053  1.0000
  C   C904      1.0  0.95313  0.34110  0.73444  1.0000
  H   H1588     1.0  0.92002  0.49001  0.56368  1.0000
  H   H1589     1.0  0.85339  0.24035  0.94240  1.0000
  H   H1590     1.0  0.71567  0.43301  0.82693  1.0000
  H   H1591     1.0  0.74720  0.41023  0.77726  1.0000
  H   H1592     1.0  0.73249  0.16602  0.68812  1.0000
  H   H1593     1.0  0.68789  0.16329  0.66112  1.0000
  H   H1594     1.0  0.77790  0.24293  0.01624  1.0000
  H   H1595     1.0  0.98806  0.16937  0.73946  1.0000
  C   C905      1.0  0.98986  0.27803  0.84580  1.0000
  H   H1596     1.0  0.72305  0.20191  0.68069  1.0000
  H   H1597     1.0  0.78786  0.44183  0.79363  1.0000
  C   C906      1.0  0.90646  0.47164  0.55570  1.0000
  H   H1598     1.0  0.92953  0.22891  0.76390  1.0000
  C   C907      1.0  0.78160  0.19568  0.68273  1.0000
  H   H1599     1.0  0.90935  0.45411  0.57491  1.0000
  C   C908      1.0  0.84135  0.15027  0.00057  1.0000
  H   H1600     1.0  0.70101  0.23074  0.72167  1.0000
  H   H1601     1.0  0.74846  0.39327  0.84903  1.0000
  H   H1602     1.0  0.81433  0.01479  0.80288  1.0000
  C   C909      1.0  0.67383  0.10952  0.86428  1.0000
  H   H1603     1.0  0.72671  0.33773  0.81568  1.0000
  C   C910      1.0  0.73004  0.18677  0.70140  1.0000
  C   C911      1.0  0.72555  0.47664  0.84217  1.0000
  H   H1604     1.0  0.69702  0.35381  0.86401  1.0000
  C   C912      1.0  0.67887  0.17595  0.71467  1.0000
  H   H1605     1.0  0.72037  0.03196  0.86808  1.0000
  C   C913      1.0  0.78694  0.43215  0.76748  1.0000
  H   H1606     1.0  0.76081  0.21772  0.72384  1.0000
  C   C914      1.0  0.97590  0.04188  0.92419  1.0000
  C   C915      1.0  0.67628  0.25133  0.77892  1.0000
  H   H1607     1.0  0.68324  0.20777  0.79356  1.0000
  C   C916      1.0  0.89658  0.01231  0.63697  1.0000
  C   C917      1.0  0.76064  0.19579  0.71313  1.0000
  H   H1608     1.0  0.95930  0.05881  0.92599  1.0000
  C   C918      1.0  0.73825  0.37185  0.84918  1.0000
  H   H1609     1.0  0.96418  0.15054  0.83558  1.0000
  H   H1610     1.0  0.76161  0.12973  0.78078  1.0000
  C   C919      1.0  0.71634  0.16609  0.75905  1.0000
  H   H1611     1.0  0.94991  0.20797  0.73367  1.0000
  H   H1612     1.0  0.74729  0.47209  0.85268  1.0000
  H   H1613     1.0  0.77741  0.44783  0.74920  1.0000
  H   H1614     1.0  0.69922  0.16508  0.77908  1.0000
  H   H1615     1.0  0.69474  0.38904  0.84561  1.0000
  H   H1616     1.0  0.98511  0.04725  0.77139  1.0000
  H   H1617     1.0  0.72527  0.31181  0.76838  1.0000
  C   C920      1.0  0.75339  0.20348  0.02111  1.0000
  H   H1618     1.0  0.95837  0.06162  0.86070  1.0000
  H   H1619     1.0  0.77137  0.29583  0.71500  1.0000
  N   N49       1.0  0.76607  0.23117  0.96395  1.0000
  C   C921      1.0  0.79322  0.23536  0.94311  1.0000
  C   C922      1.0  0.74847  0.20840  0.94625  1.0000
  C   C923      1.0  0.74979  0.25903  0.96275  1.0000
  H   H1620     1.0  0.97729  0.32905  0.77923  1.0000
  C   C924      1.0  0.97350  0.23432  0.81234  1.0000
  C   C925      1.0  0.81249  0.26102  0.95352  1.0000
  C   C926      1.0  0.71969  0.25921  0.97957  1.0000
  C   C927      1.0  0.76448  0.18012  0.93874  1.0000
  C   C928      1.0  0.74369  0.15546  0.93207  1.0000
  C   C929      1.0  0.70513  0.28814  0.97430  1.0000
  C   C930      1.0  0.84148  0.26001  0.93505  1.0000
  H   H1621     1.0  0.72711  0.03804  0.71015  1.0000
  H   H1622     1.0  0.78805  0.23797  0.91512  1.0000
  H   H1623     1.0  0.80695  0.21600  0.94515  1.0000
  H   H1624     1.0  0.72883  0.20316  0.96116  1.0000
  H   H1625     1.0  0.74727  0.26621  0.93530  1.0000
  H   H1626     1.0  0.76201  0.27620  0.97605  1.0000
  H   H1627     1.0  0.76912  0.18082  0.73299  1.0000
  H   H1628     1.0  0.96119  0.09480  0.81762  1.0000
  H   H1629     1.0  0.66332  0.07074  0.81370  1.0000
  H   H1630     1.0  0.73252  0.04317  0.77342  1.0000
  H   H1631     1.0  0.80219  0.28149  0.94595  1.0000
  H   H1632     1.0  0.81647  0.26107  0.98183  1.0000
  C   C931      1.0  0.86917  0.39199  0.52775  1.0000
  H   H1633     1.0  0.70539  0.24291  0.96800  1.0000
  H   H1634     1.0  0.77793  0.18280  0.91527  1.0000
  H   H1635     1.0  0.77882  0.17410  0.96040  1.0000
  H   H1636     1.0  0.73109  0.15048  0.95575  1.0000
  H   H1637     1.0  0.77457  0.21088  0.66226  1.0000
  N   N50       1.0  0.70749  0.18531  0.72947  1.0000
  H   H1638     1.0  0.66723  0.19463  0.70348  1.0000
  H   H1639     1.0  0.83849  0.26048  0.90651  1.0000
  H   H1640     1.0  0.85462  0.27884  0.94248  1.0000
  C   C932      1.0  0.98006  0.45143  0.72213  1.0000
  H   H1641     1.0  0.66478  0.16757  0.73571  1.0000
  C   C933      1.0  0.90872  0.19081  0.74702  1.0000
  H   H1642     1.0  0.83536  0.33040  0.88391  1.0000
  H   H1643     1.0  0.93773  0.07096  0.79526  1.0000
  H   H1644     1.0  0.66771  0.03079  0.77682  1.0000
  C   C934      1.0  0.73809  0.35850  0.81273  1.0000
  C   C935      1.0  0.97662  0.04640  0.85888  1.0000
  H   H1645     1.0  0.71775  0.30551  0.98659  1.0000
  H   H1646     1.0  0.72379  0.22219  0.75735  1.0000
  H   H1647     1.0  0.88351  0.47797  0.55603  1.0000
  H   H1648     1.0  0.70013  0.07898  0.81362  1.0000
  H   H1649     1.0  0.80323  0.20233  0.69181  1.0000
  H   H1650     1.0  0.74288  0.09698  0.77237  1.0000
  N   N51       1.0  0.69101  0.03463  0.82483  1.0000
  H   H1651     1.0  0.78331  0.17390  0.67162  1.0000
  H   H1652     1.0  0.72240  0.00429  0.73218  1.0000
  H   H1653     1.0  0.90181  0.01827  0.66406  1.0000
  H   H1654     1.0  0.69190  0.00255  0.78468  1.0000
  H   H1655     1.0  0.94438  0.36041  0.74724  1.0000
  H   H1656     1.0  0.95896  0.08432  0.73902  1.0000
  H   H1657     1.0  0.88810  0.00549  0.73766  1.0000
  H   H1658     1.0  0.95620  0.34578  0.70645  1.0000
  H   H1659     1.0  0.68486  0.45403  0.83937  1.0000
  C   C936      1.0  0.92393  0.00955  0.61539  1.0000
  C   C937      1.0  0.68377  0.06592  0.82745  1.0000
  H   H1660     1.0  0.88266  0.02917  0.62570  1.0000
  H   H1661     1.0  0.69667  0.25972  0.78982  1.0000
  H   H1662     1.0  0.97576  0.27250  0.86806  1.0000
  H   H1663     1.0  0.97989  0.02808  0.60275  1.0000
  H   H1664     1.0  0.73580  0.04697  0.83056  1.0000
  C   C938      1.0  0.72819  0.48654  0.80387  1.0000
  C   C939      1.0  0.98263  0.05659  0.79747  1.0000
  C   C940      1.0  0.72070  0.02991  0.83939  1.0000
  C   C941      1.0  0.97319  0.02579  0.89001  1.0000
  N   N52       1.0  0.97978  0.20473  0.79884  1.0000
  C   C942      1.0  0.96913  0.99752  0.54871  1.0000
  C   C943      1.0  0.67017  0.01636  0.84522  1.0000
  H   H1665     1.0  0.97795  0.29225  0.82777  1.0000
  C   C944      1.0  0.68203  0.07794  0.86471  1.0000
  H   H1666     1.0  0.97283  0.02677  0.94617  1.0000
  H   H1667     1.0  0.98761  0.31148  0.73980  1.0000
  H   H1668     1.0  0.98796  0.01815  0.64557  1.0000
  H   H1669     1.0  0.67342  0.11784  0.89113  1.0000
  H   H1670     1.0  0.75395  0.18148  0.01058  1.0000
  C   C945      1.0  0.98704  0.15481  0.82897  1.0000
  C   C946      1.0  0.76257  0.99659  0.85121  1.0000
  H   H1671     1.0  0.68345  0.28772  0.98618  1.0000
  H   H1672     1.0  0.84695  0.39790  0.52419  1.0000
  H   H1673     1.0  0.67023  0.26428  0.75590  1.0000
  H   H1674     1.0  0.66570  0.06641  0.88035  1.0000
  H   H1675     1.0  0.99321  0.22406  0.75043  1.0000
  H   H1676     1.0  0.99156  0.14479  0.80379  1.0000
  H   H1677     1.0  0.98975  0.00887  0.89005  1.0000
  C   C947      1.0  0.99269  0.18753  0.82834  1.0000
  H   H1678     1.0  0.67416  0.99331  0.84024  1.0000
  H   H1679     1.0  0.93720  0.45284  0.52176  1.0000
  H   H1680     1.0  0.99216  0.37075  0.81112  1.0000
  H   H1681     1.0  0.88441  0.99183  0.63706  1.0000
  Fe  Fe109     1.0  0.70227  0.87020  0.24408  1.0000
  H   H1682     1.0  0.69992  0.71113  0.12954  1.0000
  S   S218      1.0  0.73530  0.89593  0.27488  1.0000
  H   H1683     1.0  0.76628  0.84442  0.25435  1.0000
  H   H1684     1.0  0.88648  0.95154  0.33552  1.0000
  H   H1685     1.0  0.68227  0.77104  0.15366  1.0000
  S   S219      1.0  0.71310  0.83894  0.20237  1.0000
  Fe  Fe110     1.0  0.96112  0.85621  0.35760  1.0000
  S   S220      1.0  0.93634  0.88778  0.32509  1.0000
  H   H1686     1.0  0.98968  0.54284  0.44291  1.0000
  Fe  Fe111     1.0  0.91988  0.86239  0.42002  1.0000
  S   S221      1.0  0.89185  0.89380  0.39186  1.0000
  S   S222      1.0  0.91036  0.84435  0.47374  1.0000
  Fe  Fe112     1.0  0.89637  0.86584  0.34527  1.0000
  S   S223      1.0  0.86060  0.84859  0.31066  1.0000
  Fe  Fe113     1.0  0.93369  0.91303  0.37450  1.0000
  S   S224      1.0  0.93764  0.96026  0.38323  1.0000
  S   S225      1.0  0.92137  0.83251  0.37468  1.0000
  S   S226      1.0  0.96146  0.88339  0.40553  1.0000
  Fe  Fe114     1.0  0.81931  0.61852  0.16652  1.0000
  S   S227      1.0  0.84780  0.64744  0.19788  1.0000
  S   S228      1.0  0.82772  0.60388  0.11099  1.0000
  Fe  Fe115     1.0  0.77506  0.61122  0.22645  1.0000
  S   S229      1.0  0.79999  0.64034  0.26153  1.0000
  S   S230      1.0  0.73303  0.58753  0.23906  1.0000
  Fe  Fe116     1.0  0.80612  0.66746  0.21396  1.0000
  S   S231      1.0  0.80394  0.71533  0.21491  1.0000
  Fe  Fe117     1.0  0.83967  0.61774  0.24283  1.0000
  S   S232      1.0  0.87141  0.60067  0.28302  1.0000
  S   S233      1.0  0.77813  0.64053  0.18004  1.0000
  S   S234      1.0  0.81435  0.58658  0.21037  1.0000
  C   C948      1.0  0.83497  0.62555  0.07379  1.0000
  C   C949      1.0  0.84294  0.65434  0.07636  1.0000
  C   C950      1.0  0.85016  0.67016  0.04632  1.0000
  C   C951      1.0  0.83371  0.61313  0.04070  1.0000
  H   H1687     1.0  0.84428  0.66417  0.10157  1.0000
  H   H1688     1.0  0.86716  0.96060  0.29640  1.0000
  H   H1689     1.0  0.98795  0.66752  0.44782  1.0000
  H   H1690     1.0  0.97337  0.51963  0.27023  1.0000
  C   C952      1.0  0.69657  0.62025  0.32651  1.0000
  C   C953      1.0  0.71627  0.61447  0.29977  1.0000
  C   C954      1.0  0.70841  0.59671  0.27237  1.0000
  C   C955      1.0  0.68052  0.58500  0.27198  1.0000
  C   C956      1.0  0.69856  0.92155  0.35119  1.0000
  H   H1691     1.0  0.70306  0.63370  0.34781  1.0000
  H   H1692     1.0  0.73767  0.62346  0.30061  1.0000
  H   H1693     1.0  0.89365  0.49831  0.49723  1.0000
  N   N53       1.0  0.69446  0.75220  0.10448  1.0000
  C   C957      1.0  0.96170  0.63236  0.31344  1.0000
  C   C958      1.0  0.94642  0.64628  0.28688  1.0000
  C   C959      1.0  0.91882  0.63684  0.27706  1.0000
  C   C960      1.0  0.90602  0.61369  0.29422  1.0000
  C   C961      1.0  0.92125  0.59997  0.32098  1.0000
  C   C962      1.0  0.94901  0.60905  0.33036  1.0000
  H   H1694     1.0  0.95605  0.66434  0.27365  1.0000
  H   H1695     1.0  0.90743  0.64747  0.25631  1.0000
  H   H1696     1.0  0.91147  0.58225  0.33470  1.0000
  H   H1697     1.0  0.96042  0.59826  0.35098  1.0000
  H   H1698     1.0  0.93451  0.56973  0.24797  1.0000
  H   H1699     1.0  0.88924  0.56280  0.13232  1.0000
  H   H1700     1.0  0.91549  0.90592  0.48392  1.0000
  C   C963      1.0  0.79951  0.73647  0.03062  1.0000
  C   C964      1.0  0.81240  0.83006  0.51669  1.0000
  H   H1701     1.0  0.93573  0.77224  0.43275  1.0000
  H   H1702     1.0  0.92400  0.81592  0.25372  1.0000
  C   C965      1.0  0.81625  0.74205  0.06396  1.0000
  H   H1703     1.0  0.94854  0.51805  0.35284  1.0000
  H   H1704     1.0  0.76712  0.70988  0.14493  1.0000
  H   H1705     1.0  0.67419  0.57127  0.25089  1.0000
  H   H1706     1.0  0.87537  0.74829  0.16051  1.0000
  C   C966      1.0  0.71379  0.75130  0.22643  1.0000
  C   C967      1.0  0.73777  0.76909  0.22966  1.0000
  C   C968      1.0  0.76539  0.75795  0.22544  1.0000
  C   C969      1.0  0.76914  0.72881  0.21911  1.0000
  C   C970      1.0  0.74519  0.71091  0.21625  1.0000
  C   C971      1.0  0.71751  0.72226  0.21938  1.0000
  H   H1707     1.0  0.73516  0.79127  0.23625  1.0000
  H   H1708     1.0  0.78385  0.77187  0.22767  1.0000
  H   H1709     1.0  0.74794  0.68836  0.21155  1.0000
  H   H1710     1.0  0.69901  0.70843  0.21674  1.0000
  C   C972      1.0  0.76998  0.88244  0.28510  1.0000
  C   C973      1.0  0.78818  0.89812  0.30712  1.0000
  C   C974      1.0  0.81594  0.88813  0.31546  1.0000
  C   C975      1.0  0.82587  0.86243  0.30152  1.0000
  C   C976      1.0  0.80771  0.84691  0.27941  1.0000
  C   C977      1.0  0.77990  0.85669  0.27142  1.0000
  H   H1711     1.0  0.78078  0.91810  0.31777  1.0000
  H   H1712     1.0  0.82971  0.90037  0.33238  1.0000
  H   H1713     1.0  0.81526  0.82722  0.26813  1.0000
  H   H1714     1.0  0.80670  0.51619  0.23249  1.0000
  C   C978      1.0  0.91461  0.53194  0.44051  1.0000
  C   C979      1.0  0.92328  0.55311  0.41203  1.0000
  H   H1715     1.0  0.88540  0.77212  0.21601  1.0000
  H   H1716     1.0  0.95791  0.78525  0.46748  1.0000
  Fe  Fe118     1.0  0.67741  0.81264  0.22532  1.0000
  H   H1717     1.0  0.92273  0.54036  0.46549  1.0000
  H   H1718     1.0  0.89092  0.53191  0.44188  1.0000
  H   H1719     1.0  0.75762  0.85849  0.44189  1.0000
  H   H1720     1.0  0.94697  0.55408  0.40913  1.0000
  C   C980      1.0  0.98904  0.56236  0.27061  1.0000
  H   H1721     1.0  0.95455  0.54356  0.29914  1.0000
  H   H1722     1.0  0.71878  0.98979  0.32664  1.0000
  H   H1723     1.0  0.90119  0.72822  0.18539  1.0000
  H   H1724     1.0  0.83089  0.82401  0.37541  1.0000
  H   H1725     1.0  0.95317  0.54633  0.21960  1.0000
  H   H1726     1.0  0.77753  0.94605  0.17411  1.0000
  H   H1727     1.0  0.67542  0.49772  0.33288  1.0000
  C   C981      1.0  0.86908  0.96500  0.32452  1.0000
  H   H1728     1.0  0.66425  0.66229  0.28567  1.0000
  H   H1729     1.0  0.91571  0.51525  0.29812  1.0000
  H   H1730     1.0  0.78316  0.78351  0.33854  1.0000
  H   H1731     1.0  0.80756  0.81331  0.49739  1.0000
  H   H1732     1.0  0.67973  0.95426  0.31967  1.0000
  H   H1733     1.0  0.72442  0.53195  0.29778  1.0000
  H   H1734     1.0  0.97928  0.53481  0.48716  1.0000
  H   H1735     1.0  0.85162  0.84807  0.49596  1.0000
  H   H1736     1.0  0.92461  0.76375  0.26194  1.0000
  H   H1737     1.0  0.70843  0.52713  0.24149  1.0000
  H   H1738     1.0  0.76546  0.52570  0.27029  1.0000
  C   C982      1.0  0.67526  0.93170  0.32620  1.0000
  C   C983      1.0  0.82929  0.85526  0.50058  1.0000
  C   C984      1.0  0.99246  0.74284  0.27605  1.0000
  S   S235      1.0  0.67909  0.76491  0.23148  1.0000
  H   H1739     1.0  0.67455  0.71621  0.07839  1.0000
  H   H1740     1.0  0.67142  0.52809  0.30467  1.0000
  H   H1741     1.0  0.79917  0.82981  0.44496  1.0000
  H   H1742     1.0  0.78125  0.75215  0.31164  1.0000
  C   C985      1.0  0.90747  0.86640  0.51084  1.0000
  H   H1743     1.0  0.93958  0.97572  0.51378  1.0000
  H   H1744     1.0  0.83293  0.79254  0.32043  1.0000
  H   H1745     1.0  0.95977  0.80225  0.42576  1.0000
  H   H1746     1.0  0.92356  0.82123  0.29990  1.0000
  H   H1747     1.0  0.98940  0.57073  0.47492  1.0000
  H   H1748     1.0  0.70782  0.68116  0.31844  1.0000
  H   H1749     1.0  0.71465  0.96743  0.26914  1.0000
  C   C986      1.0  0.69930  0.50539  0.24608  1.0000
  H   H1750     1.0  0.87479  0.52738  0.21614  1.0000
  H   H1751     1.0  0.66858  0.54319  0.36471  1.0000
  C   C987      1.0  0.89404  0.54128  0.21919  1.0000
  C   C988      1.0  0.76102  0.86256  0.46992  1.0000
  C   C989      1.0  0.73410  0.87725  0.48360  1.0000
  H   H1752     1.0  0.71613  0.96031  0.19968  1.0000
  H   H1753     1.0  0.91207  0.71119  0.36576  1.0000
  H   H1754     1.0  0.78515  0.78717  0.29224  1.0000
  H   H1755     1.0  0.86428  0.71624  0.18280  1.0000
  C   C990      1.0  0.78803  0.88166  0.47492  1.0000
  C   C991      1.0  0.86238  0.50768  0.31861  1.0000
  H   H1756     1.0  0.77678  0.74146  0.03599  1.0000
  H   H1757     1.0  0.97713  0.96863  0.50558  1.0000
  H   H1758     1.0  0.88601  0.56179  0.22995  1.0000
  C   C992      1.0  0.96406  0.54117  0.27307  1.0000
  C   C993      1.0  0.73033  0.98516  0.27253  1.0000
  H   H1759     1.0  0.86019  0.84628  0.42177  1.0000
  C   C994      1.0  0.73980  0.96042  0.20401  1.0000
  H   H1760     1.0  0.69722  0.79331  0.07916  1.0000
  C   C995      1.0  0.68991  0.53730  0.35411  1.0000
  H   H1761     1.0  0.80154  0.71334  0.02468  1.0000
  H   H1762     1.0  0.73096  0.70653  0.07873  1.0000
  H   H1763     1.0  0.84865  0.76056  0.21272  1.0000
  C   C996      1.0  0.74580  0.91268  0.17353  1.0000
  C   C997      1.0  0.83926  0.91859  0.47995  1.0000
  H   H1764     1.0  0.69737  0.93336  0.37599  1.0000
  H   H1765     1.0  0.95806  0.74526  0.38366  1.0000
  C   C998      1.0  0.96724  0.50453  0.35413  1.0000
  C   C999      1.0  0.81493  0.84691  0.43900  1.0000
  C   C1000     1.0  0.75379  0.94440  0.17323  1.0000
  H   H1766     1.0  0.92603  0.76789  0.30837  1.0000
  H   H1767     1.0  0.94086  0.49999  0.21121  1.0000
  H   H1768     1.0  0.74344  0.94677  0.22729  1.0000
  H   H1769     1.0  0.92257  0.67944  0.34282  1.0000
  H   H1770     1.0  0.83150  0.89922  0.42984  1.0000
  H   H1771     1.0  0.75130  0.97547  0.27930  1.0000
  H   H1772     1.0  0.71505  0.86351  0.47881  1.0000
  H   H1773     1.0  0.73590  0.88086  0.51191  1.0000
  H   H1774     1.0  0.87938  0.93385  0.45683  1.0000
  H   H1775     1.0  0.78718  0.96887  0.23312  1.0000
  H   H1776     1.0  0.86987  0.49346  0.26636  1.0000
  H   H1777     1.0  0.95906  0.70327  0.41437  1.0000
  H   H1778     1.0  0.86003  0.96020  0.48111  1.0000
  H   H1779     1.0  0.84863  0.95881  0.33730  1.0000
  H   H1780     1.0  0.67728  0.91908  0.30202  1.0000
  H   H1781     1.0  0.86339  0.52764  0.33403  1.0000
  H   H1782     1.0  0.80918  0.72685  0.08445  1.0000
  C   C1001     1.0  0.71539  0.51087  0.30593  1.0000
  C   C1002     1.0  0.76357  0.50812  0.25128  1.0000
  H   H1783     1.0  0.70117  0.55725  0.34621  1.0000
  H   H1784     1.0  0.71603  0.73547  0.03792  1.0000
  S   S236      1.0  0.66976  0.89304  0.21084  1.0000
  H   H1785     1.0  0.84744  0.94979  0.43886  1.0000
  H   H1786     1.0  0.89419  0.69327  0.29239  1.0000
  H   H1787     1.0  0.67645  0.50913  0.25288  1.0000
  C   C1003     1.0  0.90513  0.54769  0.18207  1.0000
  H   H1788     1.0  0.87174  0.57851  0.16900  1.0000
  H   H1789     1.0  0.95433  0.80527  0.27965  1.0000
  H   H1790     1.0  0.71182  0.67929  0.27233  1.0000
  C   C1004     1.0  0.70015  0.69020  0.29351  1.0000
  H   H1791     1.0  0.70537  0.71337  0.29264  1.0000
  C   C1005     1.0  0.93054  0.80664  0.27903  1.0000
  H   H1792     1.0  0.90027  0.54866  0.28980  1.0000
  H   H1793     1.0  0.91359  0.54675  0.38695  1.0000
  C   C1006     1.0  0.67892  0.73934  0.07372  1.0000
  H   H1794     1.0  0.81242  0.76416  0.07314  1.0000
  C   C1007     1.0  0.87131  0.51364  0.28120  1.0000
  H   H1795     1.0  0.69859  0.87065  0.04101  1.0000
  H   H1796     1.0  0.69633  0.52741  0.17880  1.0000
  C   C1008     1.0  0.83731  0.89178  0.45640  1.0000
  C   C1009     1.0  0.68607  0.51741  0.32321  1.0000
  H   H1797     1.0  0.85071  0.81779  0.45109  1.0000
  H   H1798     1.0  0.75596  0.90184  0.15119  1.0000
  C   C1010     1.0  0.84300  0.83115  0.42920  1.0000
  C   C1011     1.0  0.85765  0.94195  0.46307  1.0000
  H   H1799     1.0  0.74334  0.68067  0.13375  1.0000
  C   C1012     1.0  0.83819  0.81148  0.39826  1.0000
  H   H1800     1.0  0.86351  0.54214  0.15670  1.0000
  N   N54       1.0  0.81703  0.86833  0.46807  1.0000
  H   H1801     1.0  0.70245  0.52658  0.37486  1.0000
  H   H1802     1.0  0.84004  0.49941  0.31925  1.0000
  C   C1013     1.0  0.67172  0.85072  0.07967  1.0000
  H   H1803     1.0  0.85962  0.88359  0.45476  1.0000
  H   H1804     1.0  0.72113  0.73848  0.14739  1.0000
  H   H1805     1.0  0.84921  0.91306  0.50517  1.0000
  H   H1806     1.0  0.72222  0.90996  0.17121  1.0000
  H   H1807     1.0  0.73078  0.89808  0.47025  1.0000
  H   H1808     1.0  0.97499  0.94754  0.32532  1.0000
  C   C1014     1.0  0.94144  0.54708  0.24464  1.0000
  H   H1809     1.0  0.85721  0.69204  0.04878  1.0000
  C   C1015     1.0  0.95709  0.78135  0.43916  1.0000
  H   H1810     1.0  0.85866  0.80083  0.39141  1.0000
  H   H1811     1.0  0.91956  0.72087  0.30292  1.0000
  C   C1016     1.0  0.66865  0.60876  0.32604  1.0000
  C   C1017     1.0  0.92741  0.50180  0.43372  1.0000
  H   H1812     1.0  0.85549  0.52895  0.27025  1.0000
  C   C1018     1.0  0.69336  0.74232  0.03761  1.0000
  H   H1813     1.0  0.78739  0.89058  0.50160  1.0000
  S   S237      1.0  0.66863  0.84237  0.26957  1.0000
  H   H1814     1.0  0.95078  0.50432  0.43815  1.0000
  H   H1815     1.0  0.92171  0.56477  0.18242  1.0000
  C   C1019     1.0  0.97972  0.66282  0.42146  1.0000
  C   C1020     1.0  0.97541  0.69041  0.40073  1.0000
  C   C1021     1.0  0.71297  0.73021  0.12231  1.0000
  H   H1816     1.0  0.87971  0.78877  0.31169  1.0000
  C   C1022     1.0  0.68167  0.85523  0.04570  1.0000
  H   H1817     1.0  0.98127  0.58469  0.27251  1.0000
  C   C1023     1.0  0.71150  0.77816  0.09327  1.0000
  C   C1024     1.0  0.91001  0.89611  0.50845  1.0000
  H   H1818     1.0  0.74612  0.95332  0.14822  1.0000
  H   H1819     1.0  0.82905  0.75777  0.33995  1.0000
  C   C1025     1.0  0.73871  0.71876  0.10138  1.0000
  C   C1026     1.0  0.72620  0.79548  0.12244  1.0000
  H   H1820     1.0  0.69263  0.76499  0.02885  1.0000
  H   H1821     1.0  0.91545  0.57481  0.41853  1.0000
  C   C1027     1.0  0.75680  0.69832  0.12320  1.0000
  C   C1028     1.0  0.74718  0.81751  0.10756  1.0000
  H   H1822     1.0  0.80668  0.85772  0.41521  1.0000
  H   H1823     1.0  0.72002  0.92550  0.33960  1.0000
  H   H1824     1.0  0.72835  0.77245  0.07436  1.0000
  H   H1825     1.0  0.83962  0.73905  0.05979  1.0000
  H   H1826     1.0  0.76293  0.84166  0.48318  1.0000
  H   H1827     1.0  0.88575  0.68396  0.35518  1.0000
  H   H1828     1.0  0.82198  0.79478  0.40450  1.0000
  H   H1829     1.0  0.69631  0.89825  0.35624  1.0000
  H   H1830     1.0  0.93157  0.50030  0.49913  1.0000
  H   H1831     1.0  0.75307  0.73628  0.09277  1.0000
  C   C1029     1.0  0.68451  0.50699  0.18296  1.0000
  H   H1832     1.0  0.70976  0.80740  0.13722  1.0000
  H   H1833     1.0  0.73832  0.78160  0.14053  1.0000
  C   C1030     1.0  0.97972  0.75403  0.38958  1.0000
  H   H1834     1.0  0.81796  0.92809  0.48513  1.0000
  H   H1835     1.0  0.92529  0.49707  0.40567  1.0000
  Fe  Fe119     1.0  0.67813  0.85925  0.17079  1.0000
  C   C1031     1.0  0.96980  0.97575  0.36871  1.0000
  C   C1032     1.0  0.90189  0.52673  0.27928  1.0000
  H   H1836     1.0  0.77397  0.68879  0.10704  1.0000
  H   H1837     1.0  0.76532  0.80672  0.09444  1.0000
  H   H1838     1.0  0.73614  0.83183  0.08883  1.0000
  H   H1839     1.0  0.75588  0.83084  0.12885  1.0000
  N   N55       1.0  0.91538  0.52772  0.24377  1.0000
  C   C1033     1.0  0.66785  0.68557  0.28916  1.0000
  H   H1840     1.0  0.78448  0.90017  0.45711  1.0000
  C   C1034     1.0  0.88088  0.55835  0.15874  1.0000
  N   N56       1.0  0.86813  0.75070  0.28333  1.0000
  C   C1035     1.0  0.87476  0.73546  0.24989  1.0000
  C   C1036     1.0  0.87405  0.73143  0.31416  1.0000
  C   C1037     1.0  0.83637  0.75727  0.28320  1.0000
  C   C1038     1.0  0.88424  0.77857  0.28636  1.0000
  C   C1039     1.0  0.91734  0.77693  0.28393  1.0000
  C   C1040     1.0  0.87103  0.75318  0.21609  1.0000
  C   C1041     1.0  0.82407  0.77079  0.31667  1.0000
  C   C1042     1.0  0.89950  0.71024  0.31137  1.0000
  C   C1043     1.0  0.90526  0.69543  0.34601  1.0000
  S   S238      1.0  0.68769  0.86975  0.11434  1.0000
  C   C1044     1.0  0.87849  0.73531  0.18435  1.0000
  C   C1045     1.0  0.79143  0.77351  0.31456  1.0000
  H   H1841     1.0  0.86119  0.71585  0.24780  1.0000
  H   H1842     1.0  0.89712  0.72756  0.24932  1.0000
  H   H1843     1.0  0.87727  0.74445  0.33790  1.0000
  H   H1844     1.0  0.85505  0.71752  0.31966  1.0000
  H   H1845     1.0  0.82386  0.73738  0.27823  1.0000
  H   H1846     1.0  0.83085  0.77233  0.26192  1.0000
  H   H1847     1.0  0.87631  0.79426  0.26681  1.0000
  H   H1848     1.0  0.95898  0.65125  0.42392  1.0000
  H   H1849     1.0  0.91443  0.52826  0.17022  1.0000
  H   H1850     1.0  0.82765  0.59089  0.03833  1.0000
  C   C1046     1.0  0.98334  0.96602  0.33872  1.0000
  H   H1851     1.0  0.75429  0.51702  0.22711  1.0000
  H   H1852     1.0  0.75333  0.90213  0.19769  1.0000
  C   C1047     1.0  0.96144  0.98525  0.51329  1.0000
  C   C1048     1.0  0.98112  0.76095  0.42880  1.0000
  C   C1049     1.0  0.67209  0.76194  0.13010  1.0000
  C   C1050     1.0  0.92303  0.49836  0.23032  1.0000
  H   H1853     1.0  0.97896  0.74135  0.44486  1.0000
  H   H1854     1.0  0.97960  0.76835  0.31917  1.0000
  H   H1855     1.0  0.73030  0.50290  0.32628  1.0000
  C   C1051     1.0  0.79391  0.49799  0.24288  1.0000
  H   H1856     1.0  0.97162  0.73145  0.27356  1.0000
  H   H1857     1.0  0.96669  0.68429  0.37519  1.0000
  H   H1858     1.0  0.97464  0.71777  0.33665  1.0000
  H   H1859     1.0  0.98062  0.77501  0.37589  1.0000
  C   C1052     1.0  0.78199  0.98940  0.21975  1.0000
  H   H1860     1.0  0.99242  0.76156  0.25822  1.0000
  H   H1861     1.0  0.79529  0.98930  0.19578  1.0000
  N   N57       1.0  0.75048  0.99054  0.21039  1.0000
  C   C1053     1.0  0.66065  0.59113  0.29853  1.0000
  H   H1862     1.0  0.66113  0.69651  0.26512  1.0000
  H   H1863     1.0  0.68445  0.49495  0.15828  1.0000
  H   H1864     1.0  0.92010  0.99016  0.31945  1.0000
  H   H1865     1.0  0.66196  0.51174  0.19017  1.0000
  H   H1866     1.0  0.66214  0.72481  0.16302  1.0000
  H   H1867     1.0  0.83418  0.99143  0.25419  1.0000
  H   H1868     1.0  0.83121  0.87155  0.52129  1.0000
  Fe  Fe120     1.0  0.87478  0.69053  0.84741  1.0000
  S   S239      1.0  0.84780  0.65898  0.81804  1.0000
  S   S240      1.0  0.90344  0.72390  0.82124  1.0000
  Fe  Fe121     1.0  0.85624  0.66591  0.91917  1.0000
  S   S241      1.0  0.82792  0.63266  0.89473  1.0000
  S   S242      1.0  0.85888  0.67867  0.97636  1.0000
  Fe  Fe122     1.0  0.86366  0.62609  0.85605  1.0000
  S   S243      1.0  0.88245  0.58274  0.84104  1.0000
  Fe  Fe123     1.0  0.81476  0.66813  0.85867  1.0000
  S   S244      1.0  0.76845  0.67605  0.84678  1.0000
  S   S245      1.0  0.89335  0.65717  0.88317  1.0000
  S   S246      1.0  0.84041  0.70175  0.88519  1.0000
  Fe  Fe124     1.0  0.88759  0.91214  0.66278  1.0000
  S   S247      1.0  0.91330  0.87882  0.69114  1.0000
  S   S248      1.0  0.89028  0.92354  0.60527  1.0000
  Fe  Fe125     1.0  0.86598  0.93943  0.73112  1.0000
  S   S249      1.0  0.89019  0.90802  0.76402  1.0000
  H   H1869     1.0  0.82786  0.87811  0.78967  1.0000
  Fe  Fe126     1.0  0.92604  0.91505  0.72614  1.0000
  H   H1870     1.0  0.76186  0.53851  0.75553  1.0000
  Fe  Fe127     1.0  0.87505  0.87451  0.72675  1.0000
  S   S250      1.0  0.85176  0.83474  0.74705  1.0000
  S   S251      1.0  0.90282  0.94862  0.69580  1.0000
  S   S252      1.0  0.84812  0.90561  0.69577  1.0000
  Fe  Fe128     1.0  0.67955  0.80782  0.87131  1.0000
  S   S253      1.0  0.72632  0.80402  0.85667  1.0000
  H   H1871     1.0  0.98133  0.88727  0.65425  1.0000
  C   C1054     1.0  0.96124  0.59087  0.81846  1.0000
  H   H1872     1.0  0.76982  0.79007  0.99104  1.0000
  H   H1873     1.0  0.78993  0.93471  0.78490  1.0000
  H   H1874     1.0  0.95636  0.51869  0.73716  1.0000
  H   H1875     1.0  0.76857  0.67635  0.92387  1.0000
  C   C1055     1.0  0.75746  0.71178  0.84922  1.0000
  C   C1056     1.0  0.77703  0.73442  0.84617  1.0000
  C   C1057     1.0  0.76740  0.76281  0.84807  1.0000
  C   C1058     1.0  0.73818  0.76855  0.85283  1.0000
  C   C1059     1.0  0.71873  0.74585  0.85506  1.0000
  C   C1060     1.0  0.72831  0.71760  0.85349  1.0000
  H   H1876     1.0  0.79945  0.73011  0.84177  1.0000
  H   H1877     1.0  0.78258  0.78027  0.84580  1.0000
  H   H1878     1.0  0.69619  0.74992  0.85752  1.0000
  H   H1879     1.0  0.71300  0.70022  0.85559  1.0000
  C   C1061     1.0  0.86995  0.55650  0.81135  1.0000
  C   C1062     1.0  0.84713  0.56156  0.78863  1.0000
  C   C1063     1.0  0.83808  0.54001  0.76557  1.0000
  C   C1064     1.0  0.85203  0.51339  0.76445  1.0000
  C   C1065     1.0  0.87520  0.50856  0.78668  1.0000
  C   C1066     1.0  0.88395  0.52991  0.81009  1.0000
  H   H1880     1.0  0.83641  0.58201  0.78894  1.0000
  H   H1881     1.0  0.82030  0.54405  0.74828  1.0000
  H   H1882     1.0  0.76592  0.52497  0.69262  1.0000
  H   H1883     1.0  0.90174  0.52576  0.82735  1.0000
  C   C1067     1.0  0.88889  0.75489  0.80121  1.0000
  C   C1068     1.0  0.90739  0.77499  0.78556  1.0000
  C   C1069     1.0  0.89648  0.79988  0.76956  1.0000
  C   C1070     1.0  0.86687  0.80463  0.76849  1.0000
  C   C1071     1.0  0.84842  0.78449  0.78412  1.0000
  C   C1072     1.0  0.85934  0.75985  0.80052  1.0000
  H   H1884     1.0  0.93026  0.77123  0.78556  1.0000
  H   H1885     1.0  0.91089  0.81511  0.75750  1.0000
  H   H1886     1.0  0.82551  0.78783  0.78345  1.0000
  H   H1887     1.0  0.84486  0.74453  0.81228  1.0000
  H   H1888     1.0  0.79439  0.86263  0.74730  1.0000
  H   H1889     1.0  0.97827  0.63129  0.76445  1.0000
  H   H1890     1.0  0.83942  0.61914  0.98546  1.0000
  H   H1891     1.0  0.68443  0.52136  0.83336  1.0000
  H   H1892     1.0  0.96080  0.85141  0.73442  1.0000
  C   C1073     1.0  0.89812  0.90079  0.56993  1.0000
  C   C1074     1.0  0.89644  0.87100  0.57259  1.0000
  H   H1893     1.0  0.76506  0.96933  0.74897  1.0000
  H   H1894     1.0  0.89112  0.86116  0.59718  1.0000
  H   H1895     1.0  0.75870  0.63130  0.79859  1.0000
  N   N58       1.0  0.73924  0.51654  0.79710  1.0000
  C   C1075     1.0  0.76064  0.52519  0.82458  1.0000
  C   C1076     1.0  0.98871  0.96004  0.63412  1.0000
  H   H1896     1.0  0.89005  0.67818  0.72384  1.0000
  C   C1077     1.0  0.76087  0.92300  0.74422  1.0000
  C   C1078     1.0  0.77291  0.55595  0.82182  1.0000
  H   H1897     1.0  0.80591  0.91380  0.75199  1.0000
  C   C1079     1.0  0.79438  0.56184  0.85084  1.0000
  H   H1898     1.0  0.97718  0.71675  0.92311  1.0000
  H   H1899     1.0  0.75129  0.52372  0.85087  1.0000
  H   H1900     1.0  0.84055  0.76993  0.87909  1.0000
  C   C1080     1.0  0.76444  0.95283  0.72842  1.0000
  H   H1901     1.0  0.80349  0.58366  0.84761  1.0000
  C   C1081     1.0  0.79014  0.72653  0.95188  1.0000
  C   C1082     1.0  0.76582  0.77030  0.97578  1.0000
  H   H1902     1.0  0.78421  0.55959  0.79700  1.0000
  H   H1903     1.0  0.74017  0.92238  0.75840  1.0000
  H   H1904     1.0  0.75590  0.91683  0.82185  1.0000
  H   H1905     1.0  0.95676  0.83483  0.85719  1.0000
  C   C1083     1.0  0.94522  0.98665  0.82381  1.0000
  C   C1084     1.0  0.74752  0.77928  0.94407  1.0000
  H   H1906     1.0  0.81235  0.54631  0.85009  1.0000
  H   H1907     1.0  0.89877  0.98933  0.83152  1.0000
  C   C1085     1.0  0.81112  0.88408  0.80887  1.0000
  C   C1086     1.0  0.75817  0.89375  0.81550  1.0000
  H   H1908     1.0  0.74614  0.95747  0.71090  1.0000
  H   H1909     1.0  0.75807  0.79706  0.92971  1.0000
  H   H1910     1.0  0.80988  0.86549  0.82670  1.0000
  C   C1087     1.0  0.84183  0.76712  0.93551  1.0000
  C   C1088     1.0  0.85269  0.77928  0.90107  1.0000
  H   H1911     1.0  0.78373  0.56056  0.87652  1.0000
  H   H1912     1.0  0.92863  0.56835  0.79094  1.0000
  H   H1913     1.0  0.84526  0.74376  0.93555  1.0000
  H   H1914     1.0  0.91242  0.95363  0.82579  1.0000
  H   H1915     1.0  0.92687  0.74998  0.89009  1.0000
  H   H1916     1.0  0.74769  0.66498  0.96071  1.0000
  H   H1917     1.0  0.68482  0.58568  0.81720  1.0000
  C   C1089     1.0  0.92186  0.72930  0.93927  1.0000
  H   H1918     1.0  0.96741  0.63176  0.69667  1.0000
  N   N59       1.0  0.98647  0.73876  0.87500  1.0000
  C   C1090     1.0  0.90377  0.54720  0.69202  1.0000
  H   H1919     1.0  0.85041  0.80290  0.90041  1.0000
  H   H1920     1.0  0.93732  0.65609  0.72943  1.0000
  C   C1091     1.0  0.77692  0.86432  0.76693  1.0000
  H   H1921     1.0  0.98849  0.95971  0.56932  1.0000
  H   H1922     1.0  0.66977  0.67058  0.74569  1.0000
  H   H1923     1.0  0.95335  0.75597  0.84158  1.0000
  C   C1092     1.0  0.67680  0.75918  0.78174  1.0000
  H   H1924     1.0  0.72806  0.61389  0.81769  1.0000
  C   C1093     1.0  0.71809  0.79016  0.95519  1.0000
  H   H1925     1.0  0.79137  0.82885  0.80090  1.0000
  H   H1926     1.0  0.95537  0.93216  0.65636  1.0000
  H   H1927     1.0  0.71003  0.54719  0.84990  1.0000
  H   H1928     1.0  0.73754  0.88782  0.80279  1.0000
  H   H1929     1.0  0.79889  0.77400  0.91620  1.0000
  H   H1930     1.0  0.93679  0.59377  0.69905  1.0000
  N   N60       1.0  0.78288  0.88915  0.79076  1.0000
  C   C1094     1.0  0.76689  0.67739  0.95250  1.0000
  C   C1095     1.0  0.80983  0.77460  0.94185  1.0000
  S   S254      1.0  0.83753  0.97213  0.75785  1.0000
  H   H1931     1.0  0.70683  0.79914  0.93237  1.0000
  H   H1932     1.0  0.93022  0.71070  0.95410  1.0000
  H   H1933     1.0  0.77908  0.51003  0.82461  1.0000
  C   C1096     1.0  0.66331  0.63947  0.68627  1.0000
  C   C1097     1.0  0.81180  0.75434  0.00018  1.0000
  C   C1098     1.0  0.73617  0.62460  0.79393  1.0000
  H   H1934     1.0  0.90060  0.56259  0.67040  1.0000
  N   N61       1.0  0.71137  0.69129  0.74091  1.0000
  C   C1099     1.0  0.73097  0.66971  0.75774  1.0000
  C   C1100     1.0  0.72796  0.70625  0.71248  1.0000
  C   C1101     1.0  0.70147  0.71214  0.76795  1.0000
  C   C1102     1.0  0.68529  0.67716  0.72522  1.0000
  C   C1103     1.0  0.69116  0.65090  0.70197  1.0000
  C   C1104     1.0  0.71710  0.65022  0.78567  1.0000
  C   C1105     1.0  0.68139  0.73617  0.75453  1.0000
  C   C1106     1.0  0.75163  0.72745  0.72459  1.0000
  C   C1107     1.0  0.76892  0.73905  0.69397  1.0000
  C   C1108     1.0  0.91828  0.64225  0.73371  1.0000
  H   H1935     1.0  0.75982  0.90775  0.72236  1.0000
  H   H1936     1.0  0.74915  0.68059  0.77092  1.0000
  H   H1937     1.0  0.74116  0.65594  0.73785  1.0000
  H   H1938     1.0  0.73855  0.69024  0.69557  1.0000
  H   H1939     1.0  0.71332  0.71813  0.69484  1.0000
  H   H1940     1.0  0.72013  0.72185  0.78152  1.0000
  H   H1941     1.0  0.74394  0.71700  0.95319  1.0000
  C   C1109     1.0  0.97132  0.50173  0.73229  1.0000
  C   C1110     1.0  0.67427  0.56483  0.82249  1.0000
  H   H1942     1.0  0.70588  0.65663  0.68045  1.0000
  H   H1943     1.0  0.69620  0.64160  0.77743  1.0000
  H   H1944     1.0  0.94481  0.55663  0.85154  1.0000
  H   H1945     1.0  0.69014  0.74688  0.73117  1.0000
  H   H1946     1.0  0.74200  0.74609  0.73785  1.0000
  H   H1947     1.0  0.76688  0.71710  0.74270  1.0000
  H   H1948     1.0  0.78009  0.72140  0.68045  1.0000
  H   H1949     1.0  0.75470  0.75041  0.67543  1.0000
  H   H1950     1.0  0.78537  0.75437  0.70345  1.0000
  H   H1951     1.0  0.90972  0.97714  0.78913  1.0000
  C   C1111     1.0  0.97452  0.76228  0.85241  1.0000
  C   C1112     1.0  0.97619  0.61194  0.74809  1.0000
  C   C1113     1.0  0.71458  0.53721  0.79431  1.0000
  H   H1952     1.0  0.96419  0.92373  0.61219  1.0000
  H   H1953     1.0  0.71371  0.66242  0.80986  1.0000
  H   H1954     1.0  0.75082  0.81507  0.74048  1.0000
  H   H1955     1.0  0.91202  0.63197  0.70908  1.0000
  H   H1956     1.0  0.76177  0.70813  0.99273  1.0000
  H   H1957     1.0  0.72012  0.98260  0.83811  1.0000
  H   H1958     1.0  0.75678  0.86783  0.75219  1.0000
  H   H1959     1.0  0.73575  0.60921  0.77218  1.0000
  C   C1114     1.0  0.76412  0.70838  0.96430  1.0000
  H   H1960     1.0  0.95746  0.79073  0.89316  1.0000
  H   H1961     1.0  0.88379  0.53443  0.69530  1.0000
  C   C1115     1.0  0.76984  0.81113  0.75711  1.0000
  H   H1962     1.0  0.98145  0.55171  0.83709  1.0000
  H   H1963     1.0  0.69745  0.76964  0.78859  1.0000
  H   H1964     1.0  0.83310  0.92553  0.81088  1.0000
  C   C1116     1.0  0.90508  0.91320  0.53776  1.0000
  H   H1965     1.0  0.95079  0.95990  0.57360  1.0000
  H   H1966     1.0  0.78937  0.81002  0.74069  1.0000
  H   H1967     1.0  0.78779  0.72800  0.92321  1.0000
  C   C1117     1.0  0.77296  0.83464  0.78418  1.0000
  C   C1118     1.0  0.84040  0.62912  0.01061  1.0000
  H   H1968     1.0  0.89200  0.57700  0.73144  1.0000
  H   H1969     1.0  0.75550  0.57180  0.82425  1.0000
  N   N62       1.0  0.97295  0.98299  0.61411  1.0000
  H   H1970     1.0  0.85525  0.77627  0.95652  1.0000
  C   C1119     1.0  0.93878  0.58036  0.72260  1.0000
  H   H1971     1.0  0.77318  0.97652  0.84297  1.0000
  H   H1972     1.0  0.75204  0.75678  0.99255  1.0000
  H   H1973     1.0  0.76486  0.85512  0.84836  1.0000
  H   H1974     1.0  0.78621  0.66731  0.96416  1.0000
  H   H1975     1.0  0.70482  0.77251  0.96585  1.0000
  C   C1120     1.0  0.84895  0.65772  0.01325  1.0000
  H   H1976     1.0  0.75294  0.83444  0.79961  1.0000
  H   H1977     1.0  0.89882  0.67299  0.76878  1.0000
  C   C1121     1.0  0.97019  0.97365  0.57680  1.0000
  H   H1978     1.0  0.74454  0.76116  0.92605  1.0000
  H   H1979     1.0  0.76696  0.79018  0.77039  1.0000
  H   H1980     1.0  0.78462  0.95411  0.71314  1.0000
  C   C1122     1.0  0.90099  0.85392  0.54312  1.0000
  C   C1123     1.0  0.94380  0.98626  0.63060  1.0000
  H   H1981     1.0  0.95735  0.81472  0.72112  1.0000
  H   H1982     1.0  0.92145  0.53231  0.68542  1.0000
  C   C1124     1.0  0.69651  0.54128  0.82746  1.0000
  H   H1983     1.0  0.80987  0.71363  0.95600  1.0000
  H   H1984     1.0  0.91208  0.54637  0.74607  1.0000
  H   H1985     1.0  0.89847  0.72598  0.93538  1.0000
  H   H1986     1.0  0.66690  0.74986  0.80536  1.0000
  C   C1125     1.0  0.78637  0.91558  0.76845  1.0000
  H   H1987     1.0  0.81666  0.79867  0.55802  1.0000
  H   H1988     1.0  0.93137  0.63250  0.78530  1.0000
  C   C1126     1.0  0.92475  0.61993  0.76231  1.0000
  H   H1989     1.0  0.96203  0.70756  0.84622  1.0000
  C   C1127     1.0  0.94978  0.57776  0.78424  1.0000
  H   H1990     1.0  0.90431  0.60941  0.77029  1.0000
  H   H1991     1.0  0.92505  0.74911  0.95451  1.0000
  H   H1992     1.0  0.98216  0.60181  0.81475  1.0000
  H   H1993     1.0  0.87358  0.64922  0.74758  1.0000
  H   H1994     1.0  0.83513  0.83191  0.56609  1.0000
  C   C1128     1.0  0.89366  0.66179  0.74426  1.0000
  H   H1995     1.0  0.72220  0.55846  0.78510  1.0000
  H   H1996     1.0  0.97337  0.57745  0.87027  1.0000
  H   H1997     1.0  0.94629  0.99038  0.65882  1.0000
  H   H1998     1.0  0.67317  0.69277  0.70910  1.0000
  C   C1129     1.0  0.91045  0.56294  0.72563  1.0000
  N   N63       1.0  0.94718  0.59793  0.75373  1.0000
  C   C1130     1.0  0.75712  0.50353  0.69923  1.0000
  H   H1999     1.0  0.89920  0.83094  0.54530  1.0000
  C   C1131     1.0  0.97316  0.93073  0.63737  1.0000
  C   C1132     1.0  0.98464  0.62012  0.71041  1.0000
  C   C1133     1.0  0.91461  0.97622  0.81720  1.0000
  H   H2000     1.0  0.68939  0.70083  0.78873  1.0000
  S   S255      1.0  0.66417  0.84286  0.90652  1.0000
  S   S256      1.0  0.97201  0.92152  0.74289  1.0000
  H   H2001     1.0  0.95061  0.98190  0.85109  1.0000
  H   H2002     1.0  0.66986  0.93305  0.76944  1.0000
  H   H2003     1.0  0.96393  0.55946  0.77741  1.0000
  C   C1134     1.0  0.93672  0.73176  0.90412  1.0000
  H   H2004     1.0  0.84966  0.80659  0.53556  1.0000
  H   H2005     1.0  0.93128  0.96612  0.62847  1.0000
  H   H2006     1.0  0.94297  0.97567  0.73458  1.0000
  H   H2007     1.0  0.80925  0.79740  0.95006  1.0000
  C   C1135     1.0  0.67754  0.72453  0.01052  1.0000
  C   C1136     1.0  0.96547  0.56766  0.84595  1.0000
  H   H2008     1.0  0.96958  0.81506  0.82045  1.0000
  H   H2009     1.0  0.72013  0.80734  0.97476  1.0000
  H   H2010     1.0  0.97129  0.84094  0.69115  1.0000
  H   H2011     1.0  0.70086  0.63318  0.71709  1.0000
  H   H2012     1.0  0.67756  0.84372  0.99168  1.0000
  H   H2013     1.0  0.69909  0.53002  0.77422  1.0000
  C   C1137     1.0  0.75948  0.87798  0.85097  1.0000
  C   C1138     1.0  0.82336  0.90990  0.82921  1.0000
  C   C1139     1.0  0.73083  0.87999  0.87006  1.0000
  C   C1140     1.0  0.84691  0.90063  0.85433  1.0000
  H   H2014     1.0  0.77609  0.88772  0.86777  1.0000
  H   H2015     1.0  0.95624  0.56504  0.71648  1.0000
  H   H2016     1.0  0.87569  0.77385  0.89764  1.0000
  H   H2017     1.0  0.80638  0.92110  0.84391  1.0000
  H   H2018     1.0  0.73233  0.86860  0.89529  1.0000
  H   H2019     1.0  0.72513  0.90264  0.87493  1.0000
  H   H2020     1.0  0.71348  0.86973  0.85475  1.0000
  H   H2021     1.0  0.86439  0.88957  0.84020  1.0000
  H   H2022     1.0  0.85612  0.91973  0.86721  1.0000
  H   H2023     1.0  0.83804  0.88607  0.87448  1.0000
  H   H2024     1.0  0.95954  0.97365  0.80720  1.0000
  C   C1141     1.0  0.98475  0.95640  0.73505  1.0000
  H   H2025     1.0  0.66789  0.62031  0.67034  1.0000
  H   H2026     1.0  0.94572  0.60645  0.82909  1.0000
  C   C1142     1.0  0.97082  0.83426  0.71877  1.0000
  H   H2027     1.0  0.98945  0.60043  0.69554  1.0000
  N   N64       1.0  0.79394  0.75585  0.96758  1.0000
  H   H2028     1.0  0.93182  0.71189  0.88978  1.0000
  C   C1143     1.0  0.75498  0.51655  0.76286  1.0000
  C   C1144     1.0  0.96965  0.73571  0.90823  1.0000
  C   C1145     1.0  0.96559  0.97902  0.73069  1.0000
  H   H2029     1.0  0.90640  0.93620  0.53541  1.0000
  H   H2030     1.0  0.97369  0.75421  0.92557  1.0000
  H   H2031     1.0  0.68847  0.72653  0.98509  1.0000
  H   H2032     1.0  0.93487  0.80688  0.83920  1.0000
  H   H2033     1.0  0.83309  0.74455  0.99490  1.0000
  C   C1146     1.0  0.95729  0.81340  0.84501  1.0000
  H   H2034     1.0  0.79212  0.83798  0.52817  1.0000
  C   C1147     1.0  0.97118  0.79192  0.86977  1.0000
  H   H2035     1.0  0.81632  0.77638  0.00961  1.0000
  H   H2036     1.0  0.99347  0.96746  0.66085  1.0000
  C   C1148     1.0  0.82956  0.81602  0.54587  1.0000
  H   H2037     1.0  0.71541  0.49281  0.85892  1.0000
  C   C1149     1.0  0.66982  0.83998  0.01769  1.0000
  H   H2038     1.0  0.71977  0.51954  0.72479  1.0000
  H   H2039     1.0  0.99240  0.80061  0.87736  1.0000
  H   H2040     1.0  0.97616  0.67786  0.79662  1.0000
  C   C1150     1.0  0.98437  0.71096  0.85553  1.0000
  H   H2041     1.0  0.77510  0.50375  0.76505  1.0000
  C   C1151     1.0  0.73789  0.50513  0.73122  1.0000
  H   H2042     1.0  0.67727  0.70158  0.01801  1.0000
  H   H2043     1.0  0.74445  0.49569  0.67685  1.0000
  H   H2044     1.0  0.98871  0.69247  0.87301  1.0000
  H   H2045     1.0  0.98850  0.76576  0.82943  1.0000
  H   H2046     1.0  0.66107  0.56692  0.84625  1.0000
  H   H2047     1.0  0.66205  0.77570  0.77135  1.0000
  H   H2048     1.0  0.66176  0.66820  0.83237  1.0000
  C   C1152     1.0  0.99346  0.90752  0.65050  1.0000
