data_image0
_chemical_formula_structural       FeSFeSFeSCH6SH5SHC2SHC2HC6H6CH5C6H2SH3C2SNC3H3CHCH5CH5CHC2H2CH2NHFeCH5CH5CH2NCHC2HC2H2CHCHC2H3CHCH3CH2NH2CHCH2C2SH2SH2FeSCFeSFeS2FeSFeHS2C2H2CH2C7H6C3H7SH2C2HCH2SH4CH4CH2FeC3H3CH3FeCSHCH2CHC2SC2HCHCHC3H2CH8CHFeSHFeS2FeSFeS3HC5H3CHCHC3H3C6HCHCH2CHCHCSHCH3C2H2C2H6SC3H2CH3C2HCH4CH6CH3C2H3C4SNH4CH4CH2NC2NCH4CH3CHSH2CH5C2H4CH8CH4FeS2FeS2FeSFeCSCSHC6H4CHNH2CHCH8NCHC6SC2H4CSH2CHCH3C2HCH2CH3CH4CHC2H5C3HCH7CH2C2H2CNCH8CH3CH2CH3CHCH5CH2FeH3SH5CHFeSFeS2CHFeCS2FeS2FeS2C6H4CFeH2C6H4CHFeCH2SCH2C2HCHC3H3C2H6NH2CH4C2H2CH3CH5CH3SCH3CHCHSH2CH7C3H3CH2CH5NCHCH2CH2NSCH7CH2FeC2H6CHCH2CH3CHCH2CH5CFeS2Fe2S2HCH2SHC3H2CH2C3H2CH2CHC3HC2HC2H2NH4CH3CH8C2H3CSH7CHCH4NC4H2SC4H2C2H5FeHCH3CH3CH2C6H2C2HC2HFeH2SH2SHSCH4CH3CH6C2H2FeHSFeHCFeSFeS2FeSFeS3C2HCHC2H2C7H4C6H4CH2C2NC11H9SHCH2CH5CSHSH2CHCH3CH3CH2CHCH3CH3C2H4CH5NHSHCH3C2H11SCH5CHCH4CH7CHNCH2CHCHCHSCHC2H4FeHFeS2Fe2S2HCH2CH4C6H4SNHCHC2H2CH2C3H5CH2CH3C4NSH3C2H4C3SCHCH4CH3CNCH5CH6CH2C2H2CH8C4H3CH3CHCH2SHCH3C2H2CHCH2CNCH3CH8CH2CHFeS2FeHFeS3HSCH3C6H6CHCSH4CH2C3H7C2HC2H4FeHFeNHC2HFeH3C3H2C2H5C2H4CH4NCHCH5CHSH2SC2H5CHFeS2FeSHFeSFeS3C6H3CHCHCHC2H2C4H3CHSHC3HCH3SH4CHCHCHCHC2H5NH2C2HCH2CNCHNH3SH2C2H3C2H4CH4C2H9CH4C2FeSFeS2FeSFeS3HNCHC3H3C6H2CHC3H3CHCH7NCHC5HC2H14CH8C2HSC2H9CHCHCH2SNH2C3SCH2CH2CHCH5C2H2CHCH2CHCH3CH2CH2CH2S2HFeSCSFeS2FeCSFeS2C6H9C6H4SH4CHFeHCH4CSH4CHC2NHC2H3C3H2CH19CH2CHC2NCH2FeCHSCHFeCHC2H3C2H3CH3CHCH3CH5CH3C2H6C2
_chemical_formula_sum              "Fe64 S128 C576 H1024 N32"
_cell_length_a       38.1181
_cell_length_b       37.9445
_cell_length_c       32.3229
_cell_angle_alpha    90.5328
_cell_angle_beta     90.195
_cell_angle_gamma    90.2779

_space_group_name_H-M_alt    "P 1"
_space_group_IT_number       1

loop_
  _space_group_symop_operation_xyz
  'x, y, z'

loop_
  _atom_site_type_symbol
  _atom_site_label
  _atom_site_symmetry_multiplicity
  _atom_site_fract_x
  _atom_site_fract_y
  _atom_site_fract_z
  _atom_site_occupancy
  Fe  Fe1       1.0  0.07868  0.30477  0.29767  1.0000
  S   S1        1.0  0.10084  0.26947  0.34660  1.0000
  Fe  Fe2       1.0  0.09546  0.22682  0.29848  1.0000
  S   S2        1.0  0.14089  0.18933  0.29350  1.0000
  Fe  Fe3       1.0  0.04486  0.25653  0.36208  1.0000
  S   S3        1.0  0.07699  0.26288  0.24822  1.0000
  C   C1        1.0  0.05732  0.12342  0.46628  1.0000
  H   H1        1.0  0.22629  0.12040  0.37973  1.0000
  H   H2        1.0  0.28504  0.24806  0.21509  1.0000
  H   H3        1.0  0.08222  0.12140  0.48429  1.0000
  H   H4        1.0  0.15690  0.17129  0.37918  1.0000
  H   H5        1.0  0.15165  0.31040  0.25646  1.0000
  H   H6        1.0  0.16079  0.17582  0.43460  1.0000
  S   S4        1.0  0.02868  0.24325  0.42704  1.0000
  H   H7        1.0  0.13507  0.01857  0.50598  1.0000
  H   H8        1.0  0.19604  0.32451  0.11815  1.0000
  H   H9        1.0  0.20886  0.31978  0.22158  1.0000
  H   H10       1.0  0.25195  0.31426  0.08239  1.0000
  H   H11       1.0  0.29224  0.32714  0.23521  1.0000
  S   S5        1.0  0.10190  0.02727  0.30138  1.0000
  H   H12       1.0  0.19701  0.04010  0.38957  1.0000
  C   C2        1.0  0.08587  0.32259  0.45726  1.0000
  C   C3        1.0  0.21910  0.02374  0.44765  1.0000
  S   S6        1.0  0.02278  0.29633  0.31846  1.0000
  H   H13       1.0  0.32425  0.16535  0.41823  1.0000
  C   C4        1.0  0.18530  0.07703  0.43845  1.0000
  C   C5        1.0  0.11072  0.25904  0.49434  1.0000
  H   H14       1.0  0.36865  0.21053  0.44028  1.0000
  C   C6        1.0  0.12978  0.14437  0.29565  1.0000
  C   C7        1.0  0.09545  0.13287  0.28795  1.0000
  C   C8        1.0  0.08713  0.09684  0.28985  1.0000
  C   C9        1.0  0.11308  0.07220  0.29958  1.0000
  C   C10       1.0  0.14731  0.08371  0.30784  1.0000
  C   C11       1.0  0.15569  0.11972  0.30555  1.0000
  H   H15       1.0  0.07551  0.15159  0.27942  1.0000
  H   H16       1.0  0.06066  0.08804  0.28322  1.0000
  H   H17       1.0  0.16740  0.06492  0.31567  1.0000
  H   H18       1.0  0.18227  0.12850  0.31151  1.0000
  H   H19       1.0  0.27029  0.18676  0.40086  1.0000
  H   H20       1.0  0.34506  0.30440  0.12511  1.0000
  C   C12       1.0  0.36926  0.18321  0.45234  1.0000
  H   H21       1.0  0.14140  0.30768  0.10433  1.0000
  H   H22       1.0  0.09241  0.18754  0.38624  1.0000
  H   H23       1.0  0.17188  0.09481  0.41793  1.0000
  H   H24       1.0  0.07263  0.30386  0.43545  1.0000
  H   H25       1.0  0.12042  0.12288  0.43238  1.0000
  C   C13       1.0  0.20001  0.04619  0.42213  1.0000
  C   C14       1.0  0.10692  0.17480  0.41186  1.0000
  C   C15       1.0  0.40857  0.29331  0.15967  1.0000
  C   C16       1.0  0.29729  0.30432  0.21443  1.0000
  C   C17       1.0  0.28212  0.27167  0.23535  1.0000
  C   C18       1.0  0.44738  0.28722  0.16902  1.0000
  H   H26       1.0  0.40616  0.29910  0.12617  1.0000
  H   H27       1.0  0.39436  0.26840  0.16589  1.0000
  S   S7        1.0  0.04137  0.21122  0.31781  1.0000
  H   H28       1.0  0.28248  0.30821  0.18526  1.0000
  H   H29       1.0  0.40265  0.31960  0.21867  1.0000
  H   H30       1.0  0.25373  0.27561  0.24139  1.0000
  C   C19       1.0  0.03385  0.32394  0.50082  1.0000
  C   C20       1.0  0.30621  0.18895  0.47691  1.0000
  S   S8        1.0  0.16892  0.12395  0.49962  1.0000
  N   N1        1.0  0.06468  0.12110  0.42019  1.0000
  C   C21       1.0  0.03863  0.14086  0.39424  1.0000
  C   C22       1.0  0.10117  0.13441  0.41066  1.0000
  C   C23       1.0  0.06313  0.08282  0.40700  1.0000
  H   H31       1.0  0.27249  0.12625  0.36872  1.0000
  H   H32       1.0  0.14865  0.21320  0.40378  1.0000
  H   H33       1.0  0.30331  0.21418  0.45986  1.0000
  C   C24       1.0  0.09198  0.05899  0.42559  1.0000
  H   H34       1.0  0.05067  0.18111  0.47418  1.0000
  C   C25       1.0  0.44564  0.32123  0.04474  1.0000
  H   H35       1.0  0.13898  0.34206  0.04508  1.0000
  H   H36       1.0  0.45095  0.27796  0.20124  1.0000
  H   H37       1.0  0.48140  0.31827  0.09604  1.0000
  H   H38       1.0  0.04759  0.14148  0.36143  1.0000
  H   H39       1.0  0.03747  0.16897  0.40396  1.0000
  C   C26       1.0  0.24201  0.34157  0.08615  1.0000
  H   H40       1.0  0.10930  0.12534  0.37924  1.0000
  H   H41       1.0  0.06496  0.08027  0.37265  1.0000
  H   H42       1.0  0.03733  0.07105  0.41530  1.0000
  H   H43       1.0  0.09833  0.18616  0.44155  1.0000
  H   H44       1.0  0.12841  0.30261  0.17889  1.0000
  C   C27       1.0  0.20214  0.34086  0.09073  1.0000
  H   H45       1.0  0.10557  0.25249  0.46125  1.0000
  C   C28       1.0  0.47422  0.30728  0.06641  1.0000
  C   C29       1.0  0.39419  0.32428  0.18619  1.0000
  H   H46       1.0  0.09726  0.06547  0.45859  1.0000
  H   H47       1.0  0.11668  0.06254  0.40796  1.0000
  C   C30       1.0  0.14571  0.18424  0.40704  1.0000
  H   H48       1.0  0.29323  0.10199  0.50166  1.0000
  H   H49       1.0  0.08442  0.31879  0.17040  1.0000
  N   N2        1.0  0.35508  0.32999  0.18427  1.0000
  H   H50       1.0  0.46257  0.31201  0.16506  1.0000
  Fe  Fe4       1.0  0.02297  0.25157  0.27276  1.0000
  C   C31       1.0  0.33716  0.29992  0.20615  1.0000
  H   H51       1.0  0.24029  0.15387  0.34421  1.0000
  H   H52       1.0  0.13495  0.27513  0.49589  1.0000
  H   H53       1.0  0.04133  0.10045  0.47649  1.0000
  H   H54       1.0  0.45803  0.26694  0.14750  1.0000
  H   H55       1.0  0.24204  0.21735  0.46131  1.0000
  C   C32       1.0  0.24394  0.20175  0.49016  1.0000
  H   H56       1.0  0.07696  0.01225  0.38988  1.0000
  H   H57       1.0  0.02103  0.31185  0.47302  1.0000
  H   H58       1.0  0.34003  0.27509  0.18792  1.0000
  H   H59       1.0  0.35489  0.32761  0.05547  1.0000
  H   H60       1.0  0.29547  0.26700  0.26539  1.0000
  C   C33       1.0  0.25826  0.14870  0.45053  1.0000
  H   H61       1.0  0.23384  0.13500  0.45974  1.0000
  H   H62       1.0  0.19154  0.32784  0.06256  1.0000
  N   N3        1.0  0.27067  0.17267  0.48521  1.0000
  C   C34       1.0  0.24718  0.14011  0.37330  1.0000
  H   H63       1.0  0.33481  0.13932  0.46208  1.0000
  C   C35       1.0  0.03759  0.15634  0.48287  1.0000
  C   C36       1.0  0.18815  0.08494  0.48073  1.0000
  H   H64       1.0  0.38734  0.16738  0.43281  1.0000
  C   C37       1.0  0.10667  0.30439  0.15606  1.0000
  C   C38       1.0  0.49288  0.27878  0.05012  1.0000
  H   H65       1.0  0.22438  0.18056  0.41073  1.0000
  H   H66       1.0  0.37967  0.18366  0.48451  1.0000
  C   C39       1.0  0.25003  0.16689  0.40878  1.0000
  H   H67       1.0  0.35018  0.29460  0.23632  1.0000
  C   C40       1.0  0.11919  0.32290  0.11698  1.0000
  H   H68       1.0  0.01041  0.15739  0.47068  1.0000
  C   C41       1.0  0.33260  0.16672  0.45112  1.0000
  C   C42       1.0  0.34207  0.33074  0.14016  1.0000
  H   H69       1.0  0.09741  0.32162  0.09403  1.0000
  H   H70       1.0  0.22874  0.27462  0.49388  1.0000
  H   H71       1.0  0.27706  0.12708  0.44456  1.0000
  C   C43       1.0  0.22320  0.03222  0.48973  1.0000
  H   H72       1.0  0.11420  0.31686  0.45425  1.0000
  C   C44       1.0  0.16042  0.33684  0.24942  1.0000
  H   H73       1.0  0.31348  0.33625  0.13930  1.0000
  H   H74       1.0  0.09778  0.27719  0.14828  1.0000
  H   H75       1.0  0.31913  0.19640  0.50677  1.0000
  C   C45       1.0  0.08168  0.02013  0.42264  1.0000
  H   H76       1.0  0.21728  0.19027  0.49529  1.0000
  H   H77       1.0  0.05777  0.01479  0.44113  1.0000
  N   N4        1.0  0.07281  0.31633  0.50073  1.0000
  H   H78       1.0  0.13957  0.21017  0.50141  1.0000
  H   H79       1.0  0.05575  0.26161  0.50327  1.0000
  C   C46       1.0  0.20727  0.06256  0.50641  1.0000
  H   H80       1.0  0.23782  0.01480  0.50965  1.0000
  C   C47       1.0  0.19288  0.34222  0.22977  1.0000
  H   H81       1.0  0.14371  0.34062  0.50597  1.0000
  H   H82       1.0  0.43122  0.34309  0.05782  1.0000
  C   C48       1.0  0.07840  0.27829  0.51299  1.0000
  C   C49       1.0  0.02438  0.02012  0.72615  1.0000
  S   S9        1.0  0.34749  0.33477  0.87896  1.0000
  H   H83       1.0  0.04868  0.03554  0.72111  1.0000
  H   H84       1.0  0.49632  0.24160  0.99972  1.0000
  S   S10       1.0  0.40408  0.26889  0.87340  1.0000
  H   H85       1.0  0.20524  0.28447  0.75517  1.0000
  H   H86       1.0  0.05589  0.05109  0.65730  1.0000
  Fe  Fe5       1.0  0.35648  0.28735  0.83816  1.0000
  S   S11       1.0  0.30779  0.25458  0.82583  1.0000
  C   C50       1.0  0.04266  0.25061  0.74005  1.0000
  Fe  Fe6       1.0  0.15526  0.11373  0.65485  1.0000
  S   S12       1.0  0.12146  0.13330  0.60329  1.0000
  Fe  Fe7       1.0  0.21191  0.16873  0.64021  1.0000
  S   S13       1.0  0.18193  0.19195  0.58751  1.0000
  S   S14       1.0  0.26483  0.19529  0.64830  1.0000
  Fe  Fe8       1.0  0.13492  0.18683  0.62794  1.0000
  S   S15       1.0  0.09492  0.23021  0.63005  1.0000
  Fe  Fe9       1.0  0.17133  0.13633  0.56772  1.0000
  H   H87       1.0  0.05949  0.01235  0.62777  1.0000
  S   S16       1.0  0.16519  0.16768  0.68267  1.0000
  S   S17       1.0  0.20488  0.11279  0.61721  1.0000
  C   C51       1.0  0.13767  0.02668  0.67242  1.0000
  C   C52       1.0  0.22531  0.25983  0.52309  1.0000
  H   H88       1.0  0.09437  0.20775  0.51752  1.0000
  H   H89       1.0  0.44705  0.26774  0.95981  1.0000
  C   C53       1.0  0.29677  0.12091  0.52767  1.0000
  H   H90       1.0  0.31231  0.07983  0.57022  1.0000
  H   H91       1.0  0.16582  0.26000  0.70210  1.0000
  C   C54       1.0  0.23616  0.31879  0.71523  1.0000
  C   C55       1.0  0.29634  0.23893  0.77601  1.0000
  C   C56       1.0  0.26459  0.22053  0.77081  1.0000
  C   C57       1.0  0.25464  0.20719  0.73179  1.0000
  C   C58       1.0  0.27633  0.21231  0.69757  1.0000
  C   C59       1.0  0.30780  0.23134  0.70256  1.0000
  C   C60       1.0  0.31780  0.24465  0.74168  1.0000
  H   H92       1.0  0.24789  0.21604  0.79726  1.0000
  H   H93       1.0  0.23044  0.19248  0.72837  1.0000
  H   H94       1.0  0.32474  0.23535  0.67623  1.0000
  H   H95       1.0  0.34236  0.25873  0.74542  1.0000
  H   H96       1.0  0.19787  0.24999  0.52489  1.0000
  H   H97       1.0  0.09864  0.05971  0.59187  1.0000
  C   C61       1.0  0.02465  0.23197  0.61376  1.0000
  C   C62       1.0  0.05269  0.21183  0.62813  1.0000
  C   C63       1.0  0.04669  0.17733  0.64137  1.0000
  H   H98       1.0  0.21061  0.25480  0.68582  1.0000
  H   H99       1.0  0.09835  0.24128  0.74901  1.0000
  H   H100      1.0  0.02924  0.25869  0.60388  1.0000
  H   H101      1.0  0.06799  0.16203  0.65389  1.0000
  H   H102      1.0  0.23448  0.32776  0.68262  1.0000
  H   H103      1.0  0.07717  0.07802  0.54711  1.0000
  H   H104      1.0  0.30836  0.31905  0.69895  1.0000
  S   S18       1.0  0.48587  0.29257  0.79784  1.0000
  H   H105      1.0  0.20282  0.32316  0.80756  1.0000
  H   H106      1.0  0.36786  0.34260  0.70476  1.0000
  C   C64       1.0  0.29179  0.10038  0.56770  1.0000
  C   C65       1.0  0.45463  0.27889  0.98946  1.0000
  H   H107      1.0  0.18370  0.28885  0.66348  1.0000
  C   C66       1.0  0.07587  0.05682  0.57050  1.0000
  H   H108      1.0  0.25624  0.29756  0.71481  1.0000
  H   H109      1.0  0.20958  0.06843  0.53907  1.0000
  S   S19       1.0  0.13035  0.06975  0.69093  1.0000
  H   H110      1.0  0.04119  0.26912  0.76675  1.0000
  H   H111      1.0  0.07594  0.20670  0.72101  1.0000
  H   H112      1.0  0.07029  0.21111  0.77641  1.0000
  H   H113      1.0  0.03717  0.08685  0.60385  1.0000
  C   C67       1.0  0.13033  0.33774  0.53615  1.0000
  H   H114      1.0  0.06164  0.15535  0.54434  1.0000
  H   H115      1.0  0.26583  0.08707  0.56777  1.0000
  H   H116      1.0  0.26701  0.30770  0.78384  1.0000
  H   H117      1.0  0.04859  0.26577  0.71162  1.0000
  C   C68       1.0  0.16282  0.01959  0.64209  1.0000
  H   H118      1.0  0.07931  0.33643  0.56309  1.0000
  H   H119      1.0  0.24829  0.21725  0.55616  1.0000
  Fe  Fe10      1.0  0.43438  0.30358  0.82974  1.0000
  C   C69       1.0  0.04131  0.05897  0.59417  1.0000
  C   C70       1.0  0.25679  0.33506  0.78603  1.0000
  C   C71       1.0  0.07358  0.22580  0.74711  1.0000
  H   H120      1.0  0.17973  0.31900  0.73141  1.0000
  H   H121      1.0  0.31899  0.32784  0.75225  1.0000
  H   H122      1.0  0.02495  0.31959  0.56850  1.0000
  C   C72       1.0  0.04192  0.03533  0.63315  1.0000
  H   H123      1.0  0.21808  0.31908  0.88235  1.0000
  H   H124      1.0  0.17842  0.04076  0.62959  1.0000
  H   H125      1.0  0.12614  0.23074  0.54920  1.0000
  Fe  Fe11      1.0  0.39721  0.31861  0.91065  1.0000
  C   C73       1.0  0.18980  0.27444  0.69236  1.0000
  S   S20       1.0  0.40002  0.32583  0.97985  1.0000
  H   H126      1.0  0.29386  0.11818  0.59515  1.0000
  C   C74       1.0  0.01270  0.31113  0.53890  1.0000
  H   H127      1.0  0.24396  0.14181  0.53162  1.0000
  H   H128      1.0  0.32412  0.13105  0.52810  1.0000
  C   C75       1.0  0.43602  0.30741  0.00598  1.0000
  H   H129      1.0  0.27788  0.16938  0.55181  1.0000
  C   C76       1.0  0.48255  0.26416  0.01197  1.0000
  C   C77       1.0  0.20140  0.30009  0.72664  1.0000
  S   S21       1.0  0.38734  0.31728  0.79115  1.0000
  C   C78       1.0  0.03510  0.15570  0.53008  1.0000
  C   C79       1.0  0.11806  0.22476  0.51696  1.0000
  H   H130      1.0  0.26365  0.32680  0.87044  1.0000
  C   C80       1.0  0.09006  0.34092  0.53166  1.0000
  H   H131      1.0  0.24162  0.28749  0.85135  1.0000
  C   C81       1.0  0.22735  0.33553  0.81913  1.0000
  H   H132      1.0  0.07926  0.27592  0.54736  1.0000
  C   C82       1.0  0.01272  0.16303  0.64013  1.0000
  C   C83       1.0  0.23847  0.31605  0.85816  1.0000
  C   C84       1.0  0.27085  0.15210  0.52507  1.0000
  H   H133      1.0  0.00951  0.21552  0.70428  1.0000
  H   H134      1.0  0.49601  0.32328  0.87869  1.0000
  C   C85       1.0  0.25120  0.22920  0.52523  1.0000
  H   H135      1.0  0.07765  0.03104  0.55426  1.0000
  H   H136      1.0  0.02145  0.17968  0.54129  1.0000
  H   H137      1.0  0.01998  0.05173  0.57233  1.0000
  H   H138      1.0  0.13711  0.31189  0.54978  1.0000
  H   H139      1.0  0.23002  0.27815  0.54956  1.0000
  H   H140      1.0  0.02003  0.13230  0.54046  1.0000
  H   H141      1.0  0.27808  0.24034  0.52306  1.0000
  H   H142      1.0  0.01061  0.28198  0.53878  1.0000
  C   C86       1.0  0.31296  0.34029  0.72221  1.0000
  H   H143      1.0  0.00811  0.13662  0.65121  1.0000
  Fe  Fe12      1.0  0.24692  0.47890  0.09179  1.0000
  S   S22       1.0  0.22829  0.48088  0.15753  1.0000
  H   H144      1.0  0.31894  0.37180  0.20003  1.0000
  Fe  Fe13      1.0  0.32244  0.46409  0.11732  1.0000
  S   S23       1.0  0.30988  0.46431  0.18501  1.0000
  S   S24       1.0  0.37649  0.45678  0.09086  1.0000
  Fe  Fe14      1.0  0.26176  0.43317  0.16647  1.0000
  S   S25       1.0  0.24591  0.38192  0.19678  1.0000
  Fe  Fe15      1.0  0.27763  0.51172  0.16949  1.0000
  S   S26       1.0  0.27966  0.56394  0.20256  1.0000
  S   S27       1.0  0.27722  0.42897  0.09949  1.0000
  S   S28       1.0  0.29338  0.51357  0.10288  1.0000
  H   H145      1.0  0.37808  0.65510  0.20708  1.0000
  C   C87       1.0  0.09373  0.36251  0.39542  1.0000
  C   C88       1.0  0.31064  0.58890  0.17559  1.0000
  C   C89       1.0  0.30555  0.62500  0.17020  1.0000
  C   C90       1.0  0.32909  0.64459  0.14617  1.0000
  C   C91       1.0  0.33958  0.57240  0.15752  1.0000
  H   H146      1.0  0.28309  0.63762  0.18410  1.0000
  H   H147      1.0  0.31521  0.40630  0.26542  1.0000
  H   H148      1.0  0.47332  0.57286  0.11082  1.0000
  C   C92       1.0  0.20471  0.37640  0.22081  1.0000
  H   H149      1.0  0.12536  0.42401  0.16417  1.0000
  C   C93       1.0  0.43366  0.64922  0.21339  1.0000
  H   H150      1.0  0.22891  0.60986  0.14427  1.0000
  C   C94       1.0  0.15125  0.39985  0.25094  1.0000
  C   C95       1.0  0.18380  0.40523  0.23148  1.0000
  C   C96       1.0  0.29227  0.65712  0.03919  1.0000
  H   H151      1.0  0.12186  0.35523  0.39316  1.0000
  H   H152      1.0  0.13527  0.42227  0.25933  1.0000
  H   H153      1.0  0.19289  0.43170  0.22535  1.0000
  C   C97       1.0  0.40711  0.43832  0.12495  1.0000
  C   C98       1.0  0.40460  0.44332  0.16777  1.0000
  C   C99       1.0  0.42825  0.42643  0.19441  1.0000
  C   C100      1.0  0.45448  0.40452  0.17832  1.0000
  C   C101      1.0  0.45700  0.39996  0.13548  1.0000
  C   C102      1.0  0.43381  0.41722  0.10887  1.0000
  H   H154      1.0  0.38458  0.46025  0.18039  1.0000
  C   C103      1.0  0.13500  0.47613  0.14208  1.0000
  H   H155      1.0  0.43564  0.41292  0.07582  1.0000
  C   C104      1.0  0.13908  0.42080  0.09760  1.0000
  H   H156      1.0  0.34383  0.60822  0.26237  1.0000
  H   H157      1.0  0.33314  0.61731  0.04129  1.0000
  C   C105      1.0  0.36380  0.54733  0.02604  1.0000
  H   H158      1.0  0.49492  0.47401  0.13510  1.0000
  C   C106      1.0  0.08079  0.36027  0.44001  1.0000
  H   H159      1.0  0.18034  0.62531  0.09146  1.0000
  C   C107      1.0  0.35614  0.36811  0.25122  1.0000
  S   S29       1.0  0.48296  0.38264  0.21252  1.0000
  H   H160      1.0  0.45306  0.63488  0.23254  1.0000
  C   C108      1.0  0.32279  0.63721  0.01957  1.0000
  H   H161      1.0  0.30748  0.55801  0.28855  1.0000
  H   H162      1.0  0.27701  0.56677  0.32972  1.0000
  H   H163      1.0  0.24330  0.57701  0.10749  1.0000
  C   C109      1.0  0.21258  0.66263  0.03099  1.0000
  C   C110      1.0  0.19257  0.56754  0.13297  1.0000
  H   H164      1.0  0.32309  0.56246  0.34130  1.0000
  H   H165      1.0  0.16860  0.58183  0.14277  1.0000
  C   C111      1.0  0.44189  0.55057  0.20292  1.0000
  C   C112      1.0  0.35748  0.62778  0.12716  1.0000
  H   H166      1.0  0.10724  0.48058  0.13307  1.0000
  H   H167      1.0  0.17041  0.43353  0.15300  1.0000
  H   H168      1.0  0.38484  0.57873  0.11859  1.0000
  H   H169      1.0  0.33695  0.55516  0.01657  1.0000
  H   H170      1.0  0.42609  0.43016  0.22753  1.0000
  H   H171      1.0  0.20280  0.55315  0.16016  1.0000
  S   S30       1.0  0.20758  0.48852  0.04124  1.0000
  C   C113      1.0  0.18717  0.37837  0.09729  1.0000
  C   C114      1.0  0.36279  0.59175  0.13300  1.0000
  C   C115      1.0  0.17361  0.67342  0.03597  1.0000
  H   H172      1.0  0.45603  0.51061  0.15940  1.0000
  H   H173      1.0  0.48951  0.64704  0.13621  1.0000
  C   C116      1.0  0.46359  0.56373  0.08013  1.0000
  H   H174      1.0  0.38825  0.35738  0.11308  1.0000
  H   H175      1.0  0.41383  0.54246  0.20226  1.0000
  H   H176      1.0  0.50788  0.55283  0.17066  1.0000
  C   C117      1.0  0.34791  0.35426  0.06722  1.0000
  C   C118      1.0  0.34486  0.62061  0.29367  1.0000
  H   H177      1.0  0.27752  0.61842  0.08308  1.0000
  C   C119      1.0  0.39651  0.64334  0.22950  1.0000
  H   H178      1.0  0.10320  0.37468  0.13322  1.0000
  H   H179      1.0  0.13926  0.48710  0.17369  1.0000
  H   H180      1.0  0.37385  0.65798  0.35416  1.0000
  H   H181      1.0  0.41094  0.64798  0.29423  1.0000
  C   C120      1.0  0.39174  0.66050  0.27287  1.0000
  H   H182      1.0  0.37973  0.57152  0.03150  1.0000
  H   H183      1.0  0.32223  0.66123  0.23694  1.0000
  H   H184      1.0  0.35090  0.40535  0.30219  1.0000
  H   H185      1.0  0.28749  0.62065  0.29086  1.0000
  H   H186      1.0  0.19570  0.38656  0.12882  1.0000
  H   H187      1.0  0.36227  0.53265  0.05557  1.0000
  C   C121      1.0  0.12887  0.36200  0.12616  1.0000
  H   H188      1.0  0.35127  0.38568  0.12215  1.0000
  H   H189      1.0  0.20114  0.39695  0.07649  1.0000
  H   H190      1.0  0.39226  0.61442  0.23005  1.0000
  C   C122      1.0  0.30390  0.57241  0.31832  1.0000
  C   C123      1.0  0.30851  0.61211  0.31239  1.0000
  H   H191      1.0  0.30474  0.62476  0.34304  1.0000
  H   H192      1.0  0.44539  0.57256  0.18085  1.0000
  H   H193      1.0  0.44853  0.55995  0.23466  1.0000
  C   C124      1.0  0.50437  0.52955  0.19112  1.0000
  C   C125      1.0  0.20653  0.61571  0.08149  1.0000
  C   C126      1.0  0.13528  0.37069  0.05031  1.0000
  C   C127      1.0  0.46484  0.51927  0.19062  1.0000
  S   S31       1.0  0.38640  0.65140  0.09590  1.0000
  N   N5        1.0  0.35518  0.65905  0.29092  1.0000
  H   H194      1.0  0.09067  0.38981  0.38388  1.0000
  H   H195      1.0  0.34393  0.54454  0.16209  1.0000
  H   H196      1.0  0.45745  0.53512  0.08162  1.0000
  H   H197      1.0  0.45956  0.49781  0.21285  1.0000
  C   C128      1.0  0.22062  0.59312  0.11766  1.0000
  H   H198      1.0  0.47582  0.38216  0.12259  1.0000
  H   H199      1.0  0.20161  0.59751  0.05473  1.0000
  H   H200      1.0  0.35732  0.42559  0.25255  1.0000
  H   H201      1.0  0.05274  0.36787  0.43964  1.0000
  C   C129      1.0  0.34411  0.40355  0.26880  1.0000
  H   H202      1.0  0.36512  0.60592  0.31147  1.0000
  H   H203      1.0  0.43537  0.63936  0.18098  1.0000
  N   N6        1.0  0.22944  0.64630  0.06848  1.0000
  C   C130      1.0  0.50156  0.61009  0.04569  1.0000
  C   C131      1.0  0.49126  0.57047  0.04696  1.0000
  N   N7        1.0  0.14794  0.38215  0.09271  1.0000
  C   C132      1.0  0.13948  0.36567  0.26010  1.0000
  H   H204      1.0  0.28158  0.67446  0.01502  1.0000
  H   H205      1.0  0.33127  0.67492  0.34916  1.0000
  H   H206      1.0  0.48070  0.56040  0.01735  1.0000
  H   H207      1.0  0.15585  0.43716  0.07709  1.0000
  C   C133      1.0  0.26454  0.63119  0.05630  1.0000
  H   H208      1.0  0.18571  0.54813  0.10822  1.0000
  H   H209      1.0  0.15245  0.49039  0.12036  1.0000
  H   H210      1.0  0.24970  0.35692  0.05849  1.0000
  C   C134      1.0  0.35723  0.67478  0.33393  1.0000
  H   H211      1.0  0.25738  0.67416  0.23983  1.0000
  S   S32       1.0  0.09872  0.36001  0.28511  1.0000
  H   H212      1.0  0.36182  0.37406  0.04818  1.0000
  H   H213      1.0  0.47749  0.62604  0.05103  1.0000
  C   C135      1.0  0.34697  0.36492  0.20456  1.0000
  H   H214      1.0  0.43901  0.57802  0.07270  1.0000
  H   H215      1.0  0.25446  0.66284  0.12544  1.0000
  H   H216      1.0  0.14412  0.36317  0.15570  1.0000
  H   H217      1.0  0.26055  0.60990  0.03291  1.0000
  H   H218      1.0  0.11146  0.42565  0.08780  1.0000
  C   C136      1.0  0.14327  0.43675  0.14175  1.0000
  C   C137      1.0  0.50416  0.67007  0.14626  1.0000
  H   H219      1.0  0.10638  0.37469  0.04792  1.0000
  H   H220      1.0  0.09585  0.37987  0.45865  1.0000
  H   H221      1.0  0.36173  0.38643  0.18926  1.0000
  H   H222      1.0  0.50065  0.45741  0.20404  1.0000
  C   C138      1.0  0.35929  0.35886  0.11221  1.0000
  H   H223      1.0  0.20905  0.67168  0.12385  1.0000
  H   H224      1.0  0.02913  0.35278  0.49851  1.0000
  H   H225      1.0  0.31923  0.35830  0.06388  1.0000
  H   H226      1.0  0.38496  0.36648  0.25595  1.0000
  H   H227      1.0  0.34336  0.34712  0.26948  1.0000
  H   H228      1.0  0.15655  0.64958  0.03430  1.0000
  H   H229      1.0  0.25445  0.35339  0.11407  1.0000
  H   H230      1.0  0.49887  0.43759  0.27730  1.0000
  C   C139      1.0  0.23319  0.67176  0.10449  1.0000
  H   H231      1.0  0.30317  0.67343  0.06488  1.0000
  H   H232      1.0  0.32510  0.67252  0.14192  1.0000
  H   H233      1.0  0.40861  0.34848  0.17703  1.0000
  H   H234      1.0  0.07804  0.34469  0.37503  1.0000
  Fe  Fe16      1.0  0.30210  0.59733  0.79379  1.0000
  S   S33       1.0  0.26195  0.57838  0.74800  1.0000
  S   S34       1.0  0.36042  0.59612  0.78371  1.0000
  Fe  Fe17      1.0  0.24809  0.60717  0.86164  1.0000
  S   S35       1.0  0.20287  0.58937  0.82160  1.0000
  S   S36       1.0  0.24535  0.61966  0.92972  1.0000
  Fe  Fe18      1.0  0.23995  0.54696  0.80035  1.0000
  S   S37       1.0  0.22919  0.48850  0.79878  1.0000
  Fe  Fe19      1.0  0.22853  0.62280  0.77276  1.0000
  C   C140      1.0  0.13853  0.37498  0.97199  1.0000
  S   S38       1.0  0.28277  0.56245  0.84425  1.0000
  C   C141      1.0  0.36331  0.66490  0.75794  1.0000
  S   S39       1.0  0.37877  0.41882  0.81204  1.0000
  H   H235      1.0  0.27732  0.41379  0.95930  1.0000
  C   C142      1.0  0.27020  0.46779  0.80140  1.0000
  C   C143      1.0  0.29942  0.48392  0.78354  1.0000
  C   C144      1.0  0.33244  0.46816  0.78623  1.0000
  C   C145      1.0  0.33658  0.43647  0.80736  1.0000
  C   C146      1.0  0.30743  0.42014  0.82530  1.0000
  C   C147      1.0  0.27417  0.43577  0.82217  1.0000
  H   H236      1.0  0.29661  0.50865  0.76754  1.0000
  H   H237      1.0  0.35487  0.48089  0.77226  1.0000
  H   H238      1.0  0.31062  0.39596  0.84221  1.0000
  H   H239      1.0  0.25173  0.42366  0.83680  1.0000
  C   C148      1.0  0.23525  0.58089  0.95692  1.0000
  H   H240      1.0  0.43469  0.42844  0.92064  1.0000
  N   N8        1.0  0.48981  0.45235  0.77367  1.0000
  H   H241      1.0  0.23151  0.40920  0.69068  1.0000
  H   H242      1.0  0.28842  0.38871  0.74359  1.0000
  C   C149      1.0  0.20023  0.57216  0.96483  1.0000
  H   H243      1.0  0.46554  0.41461  0.70726  1.0000
  C   C150      1.0  0.42257  0.41789  0.94912  1.0000
  H   H244      1.0  0.42443  0.46665  0.98257  1.0000
  H   H245      1.0  0.17941  0.58786  0.95174  1.0000
  H   H246      1.0  0.49473  0.58943  0.93180  1.0000
  H   H247      1.0  0.36107  0.61561  0.92892  1.0000
  H   H248      1.0  0.30217  0.38073  0.93147  1.0000
  H   H249      1.0  0.44182  0.39083  0.00384  1.0000
  H   H250      1.0  0.48357  0.46070  0.83934  1.0000
  H   H251      1.0  0.42944  0.61986  0.80426  1.0000
  N   N9        1.0  0.37363  0.46522  0.95242  1.0000
  C   C151      1.0  0.38730  0.48277  0.91405  1.0000
  H   H252      1.0  0.45910  0.41104  0.80219  1.0000
  C   C152      1.0  0.34552  0.43904  0.93981  1.0000
  C   C153      1.0  0.35780  0.49186  0.98185  1.0000
  C   C154      1.0  0.25388  0.53193  0.99988  1.0000
  C   C155      1.0  0.36044  0.50515  0.88973  1.0000
  C   C156      1.0  0.33318  0.41338  0.97400  1.0000
  C   C157      1.0  0.35813  0.65560  0.88094  1.0000
  S   S40       1.0  0.27108  0.64409  0.81485  1.0000
  C   C158      1.0  0.45574  0.36282  0.73074  1.0000
  C   C159      1.0  0.47587  0.60621  0.94900  1.0000
  H   H253      1.0  0.44715  0.47053  0.73485  1.0000
  H   H254      1.0  0.39664  0.46259  0.89149  1.0000
  H   H255      1.0  0.41027  0.53075  0.76668  1.0000
  H   H256      1.0  0.08358  0.36881  0.52476  1.0000
  C   C160      1.0  0.34975  0.61892  0.89750  1.0000
  S   S41       1.0  0.20281  0.65588  0.72284  1.0000
  H   H257      1.0  0.32183  0.45318  0.92859  1.0000
  H   H258      1.0  0.33219  0.50152  0.96987  1.0000
  C   C161      1.0  0.50467  0.46233  0.81558  1.0000
  H   H259      1.0  0.38698  0.65860  0.88063  1.0000
  C   C162      1.0  0.19203  0.54325  0.98989  1.0000
  H   H260      1.0  0.33883  0.48829  0.87752  1.0000
  H   H261      1.0  0.34873  0.52628  0.90907  1.0000
  H   H262      1.0  0.47425  0.65120  0.98946  1.0000
  C   C163      1.0  0.45222  0.40171  0.97457  1.0000
  C   C164      1.0  0.29913  0.39457  0.96164  1.0000
  H   H263      1.0  0.39736  0.54282  0.86317  1.0000
  C   C165      1.0  0.45854  0.47589  0.76603  1.0000
  H   H264      1.0  0.34064  0.37404  0.67855  1.0000
  H   H265      1.0  0.16488  0.53663  0.99580  1.0000
  C   C166      1.0  0.37806  0.52255  0.85280  1.0000
  H   H266      1.0  0.23055  0.39912  0.76685  1.0000
  H   H267      1.0  0.43067  0.63813  0.93242  1.0000
  H   H268      1.0  0.41065  0.49943  0.92145  1.0000
  C   C167      1.0  0.41573  0.64144  0.78982  1.0000
  H   H269      1.0  0.22152  0.36318  0.82835  1.0000
  H   H270      1.0  0.38477  0.54134  0.96495  1.0000
  H   H271      1.0  0.48983  0.52356  0.75161  1.0000
  H   H272      1.0  0.36119  0.59863  0.87670  1.0000
  C   C168      1.0  0.18024  0.42168  0.71219  1.0000
  H   H273      1.0  0.29225  0.37480  0.98544  1.0000
  C   C169      1.0  0.20935  0.39474  0.70495  1.0000
  C   C170      1.0  0.28057  0.36482  0.72527  1.0000
  H   H274      1.0  0.43710  0.46986  0.78835  1.0000
  H   H275      1.0  0.43764  0.35460  0.70544  1.0000
  H   H276      1.0  0.35418  0.42272  0.91288  1.0000
  H   H277      1.0  0.35339  0.39295  0.97916  1.0000
  H   H278      1.0  0.18938  0.44282  0.73379  1.0000
  C   C171      1.0  0.22065  0.37754  0.74623  1.0000
  C   C172      1.0  0.49509  0.63493  0.97507  1.0000
  C   C173      1.0  0.43517  0.53718  0.75060  1.0000
  H   H279      1.0  0.35778  0.53535  0.83355  1.0000
  C   C174      1.0  0.40371  0.44726  0.97409  1.0000
  H   H280      1.0  0.50335  0.46567  0.71041  1.0000
  H   H281      1.0  0.44032  0.56586  0.75452  1.0000
  H   H282      1.0  0.33658  0.66130  0.74729  1.0000
  H   H283      1.0  0.32094  0.61467  0.89883  1.0000
  H   H284      1.0  0.39153  0.50260  0.83327  1.0000
  H   H285      1.0  0.43203  0.53141  0.71704  1.0000
  H   H286      1.0  0.40403  0.39660  0.94011  1.0000
  C   C175      1.0  0.26207  0.56029  0.97380  1.0000
  H   H287      1.0  0.46876  0.52472  0.80146  1.0000
  H   H288      1.0  0.35268  0.38110  0.73227  1.0000
  C   C176      1.0  0.38102  0.63692  0.77647  1.0000
  C   C177      1.0  0.14499  0.36620  0.56530  1.0000
  H   H289      1.0  0.27864  0.35073  0.80016  1.0000
  H   H290      1.0  0.32842  0.42711  0.00383  1.0000
  C   C178      1.0  0.45523  0.40279  0.73604  1.0000
  N   N10       1.0  0.24776  0.34867  0.74333  1.0000
  C   C179      1.0  0.43271  0.67395  0.78499  1.0000
  H   H291      1.0  0.17293  0.43408  0.68242  1.0000
  H   H292      1.0  0.46443  0.37980  0.95678  1.0000
  H   H293      1.0  0.47274  0.42170  0.98189  1.0000
  H   H294      1.0  0.19924  0.37469  0.68269  1.0000
  H   H295      1.0  0.31415  0.62383  0.99056  1.0000
  H   H296      1.0  0.44731  0.35017  0.75978  1.0000
  H   H297      1.0  0.21358  0.64391  0.00430  1.0000
  H   H298      1.0  0.10975  0.37910  0.96979  1.0000
  C   C180      1.0  0.46568  0.51622  0.76865  1.0000
  H   H299      1.0  0.43899  0.60176  0.89771  1.0000
  H   H300      1.0  0.15657  0.40881  0.72528  1.0000
  H   H301      1.0  0.39489  0.43591  0.00400  1.0000
  C   C181      1.0  0.45158  0.62277  0.91687  1.0000
  H   H302      1.0  0.42746  0.41117  0.73932  1.0000
  H   H303      1.0  0.45897  0.58977  0.96877  1.0000
  C   C182      1.0  0.47645  0.41488  0.77485  1.0000
  H   H304      1.0  0.28914  0.56668  0.96729  1.0000
  H   H305      1.0  0.34857  0.65670  0.84854  1.0000
  H   H306      1.0  0.27581  0.37396  0.69320  1.0000
  C   C183      1.0  0.38090  0.52461  0.99254  1.0000
  H   H307      1.0  0.46651  0.64036  0.89592  1.0000
  C   C184      1.0  0.21878  0.52345  0.00810  1.0000
  H   H308      1.0  0.19625  0.36809  0.76106  1.0000
  H   H309      1.0  0.13978  0.39287  0.55282  1.0000
  H   H310      1.0  0.14432  0.34641  0.96880  1.0000
  H   H311      1.0  0.33935  0.67599  0.93931  1.0000
  H   H312      1.0  0.17382  0.36296  0.56850  1.0000
  C   C185      1.0  0.34544  0.36090  0.70859  1.0000
  H   H313      1.0  0.15128  0.38902  0.94598  1.0000
  H   H314      1.0  0.13302  0.36399  0.59649  1.0000
  Fe  Fe20      1.0  0.38209  0.36321  0.83462  1.0000
  H   H315      1.0  0.49816  0.39597  0.77964  1.0000
  H   H316      1.0  0.35127  0.47921  0.01171  1.0000
  H   H317      1.0  0.34431  0.65590  0.01224  1.0000
  S   S42       1.0  0.43092  0.35178  0.86983  1.0000
  H   H318      1.0  0.14746  0.41819  0.01365  1.0000
  H   H319      1.0  0.27464  0.51632  0.01312  1.0000
  H   H320      1.0  0.48259  0.35355  0.72321  1.0000
  H   H321      1.0  0.40702  0.51700  0.00447  1.0000
  H   H322      1.0  0.18154  0.38540  0.01308  1.0000
  C   C186      1.0  0.15273  0.38946  0.01307  1.0000
  H   H323      1.0  0.22941  0.73020  0.15686  1.0000
  Fe  Fe21      1.0  0.42966  0.76658  0.14384  1.0000
  S   S43       1.0  0.42506  0.74276  0.08062  1.0000
  Fe  Fe22      1.0  0.35068  0.77096  0.15544  1.0000
  S   S44       1.0  0.33924  0.74641  0.09309  1.0000
  S   S45       1.0  0.31139  0.78049  0.20653  1.0000
  C   C187      1.0  0.24049  0.71100  0.09424  1.0000
  H   H324      1.0  0.06631  0.89887  0.43521  1.0000
  Fe  Fe23      1.0  0.38252  0.78214  0.07099  1.0000
  C   C188      1.0  0.42095  0.90650  0.30741  1.0000
  S   S46       1.0  0.39059  0.73030  0.17239  1.0000
  S   S47       1.0  0.39071  0.80962  0.13213  1.0000
  Fe  Fe24      1.0  0.15222  0.91431  0.34321  1.0000
  S   S48       1.0  0.14645  0.93783  0.28049  1.0000
  S   S49       1.0  0.12157  0.86718  0.36424  1.0000
  Fe  Fe25      1.0  0.20503  0.94221  0.28147  1.0000
  S   S50       1.0  0.23510  0.92792  0.22339  1.0000
  S   S51       1.0  0.21093  0.91457  0.34204  1.0000
  C   C189      1.0  0.28864  0.82071  0.20950  1.0000
  C   C190      1.0  0.28956  0.84497  0.17726  1.0000
  C   C191      1.0  0.27244  0.87754  0.18157  1.0000
  C   C192      1.0  0.25411  0.88589  0.21795  1.0000
  C   C193      1.0  0.25247  0.86119  0.24972  1.0000
  C   C194      1.0  0.26979  0.82875  0.24553  1.0000
  H   H325      1.0  0.30382  0.83885  0.14922  1.0000
  H   H326      1.0  0.27377  0.89655  0.15685  1.0000
  H   H327      1.0  0.23844  0.86733  0.27782  1.0000
  H   H328      1.0  0.26914  0.81008  0.27059  1.0000
  C   C195      1.0  0.02148  0.83964  0.33553  1.0000
  Fe  Fe26      1.0  0.38307  0.70942  0.10821  1.0000
  H   H329      1.0  0.27525  0.72189  0.14659  1.0000
  H   H330      1.0  0.34397  0.70117  0.24758  1.0000
  C   C196      1.0  0.13979  0.76664  0.19331  1.0000
  C   C197      1.0  0.05521  0.84004  0.35333  1.0000
  C   C198      1.0  0.07828  0.86810  0.34564  1.0000
  C   C199      1.0  0.06720  0.89611  0.32126  1.0000
  C   C200      1.0  0.03415  0.89514  0.30244  1.0000
  C   C201      1.0  0.05545  0.80966  0.21223  1.0000
  H   H331      1.0  0.06355  0.81841  0.37255  1.0000
  H   H332      1.0  0.08409  0.91853  0.31660  1.0000
  H   H333      1.0  0.41141  0.93038  0.24892  1.0000
  H   H334      1.0  0.05294  0.96066  0.19967  1.0000
  C   C202      1.0  0.48687  0.70224  0.15164  1.0000
  H   H335      1.0  0.39137  0.93558  0.18552  1.0000
  Fe  Fe27      1.0  0.20617  0.96863  0.37024  1.0000
  C   C203      1.0  0.01135  0.86682  0.30911  1.0000
  H   H336      1.0  0.40175  0.92450  0.32219  1.0000
  H   H337      1.0  0.36365  0.93463  0.11661  1.0000
  S   S52       1.0  0.23680  0.98468  0.42703  1.0000
  C   C204      1.0  0.19640  0.90168  0.47014  1.0000
  H   H338      1.0  0.03659  0.79786  0.44153  1.0000
  H   H339      1.0  0.09272  0.78691  0.25455  1.0000
  C   C205      1.0  0.06803  0.87869  0.45981  1.0000
  C   C206      1.0  0.15133  0.80400  0.28853  1.0000
  H   H340      1.0  0.16332  0.76324  0.21310  1.0000
  C   C207      1.0  0.38076  0.84533  0.26472  1.0000
  H   H341      1.0  0.28444  0.92053  0.29967  1.0000
  C   C208      1.0  0.41277  0.82271  0.25161  1.0000
  C   C209      1.0  0.33374  0.89235  0.30790  1.0000
  C   C210      1.0  0.40964  0.78524  0.26821  1.0000
  H   H342      1.0  0.35650  0.83119  0.25443  1.0000
  H   H343      1.0  0.38005  0.84453  0.29894  1.0000
  H   H344      1.0  0.32492  0.89548  0.24330  1.0000
  C   C211      1.0  0.37065  0.91561  0.17927  1.0000
  C   C212      1.0  0.37846  0.88067  0.20226  1.0000
  H   H345      1.0  0.32106  0.86589  0.30703  1.0000
  H   H346      1.0  0.29531  0.91066  0.35262  1.0000
  H   H347      1.0  0.38528  0.77241  0.25638  1.0000
  H   H348      1.0  0.43244  0.76945  0.25756  1.0000
  H   H349      1.0  0.16384  0.89051  0.21102  1.0000
  H   H350      1.0  0.19039  0.86676  0.41625  1.0000
  N   N11       1.0  0.16434  0.89712  0.49675  1.0000
  H   H351      1.0  0.11684  0.75371  0.20774  1.0000
  H   H352      1.0  0.31821  0.94550  0.32637  1.0000
  C   C213      1.0  0.01397  0.79380  0.46103  1.0000
  H   H353      1.0  0.21677  0.72333  0.08075  1.0000
  H   H354      1.0  0.16447  0.84122  0.51145  1.0000
  H   H355      1.0  0.25084  0.89741  0.41604  1.0000
  H   H356      1.0  0.07996  0.83003  0.26785  1.0000
  C   C214      1.0  0.37240  0.71281  0.33661  1.0000
  C   C215      1.0  0.26787  0.70000  0.25070  1.0000
  H   H357      1.0  0.07307  0.85257  0.44530  1.0000
  H   H358      1.0  0.21906  0.91120  0.48910  1.0000
  C   C216      1.0  0.14709  0.74710  0.15264  1.0000
  H   H359      1.0  0.34499  0.92688  0.18849  1.0000
  H   H360      1.0  0.43755  0.83425  0.26388  1.0000
  H   H361      1.0  0.15362  0.93742  0.16169  1.0000
  C   C217      1.0  0.25040  0.73198  0.13322  1.0000
  H   H362      1.0  0.28558  0.67794  0.30741  1.0000
  H   H363      1.0  0.45906  0.70358  0.14586  1.0000
  H   H364      1.0  0.26327  0.86877  0.45773  1.0000
  H   H365      1.0  0.35477  0.89177  0.33149  1.0000
  H   H366      1.0  0.09178  0.86268  0.18100  1.0000
  C   C218      1.0  0.14901  0.96371  0.49595  1.0000
  H   H367      1.0  0.37607  0.75712  0.37935  1.0000
  H   H368      1.0  0.12380  0.74810  0.13192  1.0000
  H   H369      1.0  0.37416  0.71475  0.40407  1.0000
  S   S53       1.0  0.20490  0.99695  0.30946  1.0000
  C   C219      1.0  0.36920  0.90941  0.13248  1.0000
  H   H370      1.0  0.18432  0.78898  0.34023  1.0000
  H   H371      1.0  0.44951  0.80952  0.04322  1.0000
  H   H372      1.0  0.15031  0.77687  0.27600  1.0000
  C   C220      1.0  0.13343  0.88907  0.46900  1.0000
  H   H373      1.0  0.15917  0.81661  0.17447  1.0000
  C   C221      1.0  0.24554  0.87155  0.43063  1.0000
  H   H374      1.0  0.39464  0.89911  0.12093  1.0000
  S   S54       1.0  0.48291  0.77217  0.17284  1.0000
  H   H375      1.0  0.04418  0.83606  0.20607  1.0000
  H   H376      1.0  0.06220  0.79687  0.18238  1.0000
  C   C222      1.0  0.18494  0.80780  0.31413  1.0000
  H   H377      1.0  0.35129  0.93064  0.26244  1.0000
  H   H378      1.0  0.40937  0.78552  0.30257  1.0000
  H   H379      1.0  0.46224  0.92556  0.34843  1.0000
  H   H380      1.0  0.12442  0.95938  0.47830  1.0000
  H   H381      1.0  0.25445  0.76017  0.12543  1.0000
  H   H382      1.0  0.24607  0.71530  0.26465  1.0000
  H   H383      1.0  0.04249  0.87727  0.47615  1.0000
  C   C223      1.0  0.34754  0.90154  0.26411  1.0000
  C   C224      1.0  0.20726  0.86883  0.44430  1.0000
  C   C225      1.0  0.45737  0.92251  0.31467  1.0000
  H   H384      1.0  0.11217  0.91846  0.14572  1.0000
  H   H385      1.0  0.34801  0.89032  0.12433  1.0000
  H   H386      1.0  0.16999  0.75894  0.13662  1.0000
  C   C226      1.0  0.30627  0.91891  0.32241  1.0000
  H   H387      1.0  0.09993  0.88065  0.23118  1.0000
  H   H388      1.0  0.18737  0.83490  0.32717  1.0000
  C   C227      1.0  0.09721  0.88798  0.49061  1.0000
  H   H389      1.0  0.11733  0.93691  0.19712  1.0000
  H   H390      1.0  0.15301  0.71903  0.15905  1.0000
  H   H391      1.0  0.25140  0.85026  0.40793  1.0000
  H   H392      1.0  0.19220  0.92286  0.44715  1.0000
  H   H393      1.0  0.20818  0.80197  0.29472  1.0000
  N   N12       1.0  0.12082  0.82819  0.22184  1.0000
  C   C228      1.0  0.11191  0.86444  0.20594  1.0000
  H   H394      1.0  0.40145  0.71211  0.33384  1.0000
  C   C229      1.0  0.08795  0.81320  0.24108  1.0000
  H   H395      1.0  0.40370  0.87093  0.18943  1.0000
  H   H396      1.0  0.14600  0.85776  0.27165  1.0000
  C   C230      1.0  0.13357  0.80631  0.18566  1.0000
  H   H397      1.0  0.15477  0.87220  0.16074  1.0000
  H   H398      1.0  0.36209  0.72956  0.31145  1.0000
  N   N13       1.0  0.38010  0.88272  0.24899  1.0000
  S   S55       1.0  0.14787  0.96560  0.37684  1.0000
  C   C231      1.0  0.14935  0.83244  0.25430  1.0000
  H   H399      1.0  0.13198  0.90817  0.44314  1.0000
  H   H400      1.0  0.17561  0.83448  0.23942  1.0000
  H   H401      1.0  0.20427  0.84390  0.46145  1.0000
  H   H402      1.0  0.41489  0.82038  0.21758  1.0000
  H   H403      1.0  0.13690  0.86292  0.45365  1.0000
  H   H404      1.0  0.35812  0.86121  0.19232  1.0000
  H   H405      1.0  0.11541  0.80890  0.15883  1.0000
  C   C232      1.0  0.41284  0.90298  0.26066  1.0000
  H   H406      1.0  0.47797  0.90508  0.30157  1.0000
  H   H407      1.0  0.42036  0.88066  0.32306  1.0000
  Fe  Fe28      1.0  0.14639  0.98979  0.31402  1.0000
  C   C233      1.0  0.14293  0.88595  0.18762  1.0000
  C   C234      1.0  0.13060  0.92182  0.17217  1.0000
  H   H408      1.0  0.12879  0.80692  0.30996  1.0000
  H   H409      1.0  0.27806  0.71470  0.22378  1.0000
  H   H410      1.0  0.30312  0.72059  0.29707  1.0000
  H   H411      1.0  0.02633  0.91641  0.28266  1.0000
  H   H412      1.0  0.43615  0.89137  0.24504  1.0000
  H   H413      1.0  0.50301  0.68163  0.05808  1.0000
  C   C235      1.0  0.50534  0.73219  0.16504  1.0000
  H   H414      1.0  0.45934  0.94891  0.30024  1.0000
  C   C236      1.0  0.02657  0.78750  0.23212  1.0000
  H   H415      1.0  0.26203  0.71407  0.07181  1.0000
  H   H416      1.0  0.40045  0.68837  0.26942  1.0000
  C   C237      1.0  0.01763  0.79567  0.50419  1.0000
  H   H417      1.0  0.17004  0.97069  0.47396  1.0000
  H   H418      1.0  0.03556  0.76004  0.23693  1.0000
  H   H419      1.0  0.09053  0.91371  0.50494  1.0000
  C   C238      1.0  0.04310  0.97975  0.22308  1.0000
  H   H420      1.0  0.10334  0.00400  0.43505  1.0000
  C   C239      1.0  0.36379  0.73052  0.37797  1.0000
  H   H421      1.0  0.01870  0.79905  0.26231  1.0000
  H   H422      1.0  0.16899  0.68681  0.06611  1.0000
  C   C240      1.0  0.29680  0.69454  0.28285  1.0000
  H   H423      1.0  0.44048  0.67770  0.21371  1.0000
  H   H424      1.0  0.33497  0.73356  0.38145  1.0000
  H   H425      1.0  0.05554  0.97366  0.25332  1.0000
  H   H426      1.0  0.22731  0.68614  0.02059  1.0000
  H   H427      1.0  0.05105  0.00675  0.21375  1.0000
  C   C241      1.0  0.33039  0.67870  0.26288  1.0000
  Fe  Fe29      1.0  0.07963  0.81326  0.68143  1.0000
  S   S56       1.0  0.11370  0.81906  0.62538  1.0000
  S   S57       1.0  0.08864  0.77738  0.73632  1.0000
  Fe  Fe30      1.0  0.06298  0.82554  0.59059  1.0000
  Fe  Fe31      1.0  0.10966  0.87728  0.63703  1.0000
  S   S58       1.0  0.15564  0.91367  0.62762  1.0000
  S   S59       1.0  0.07985  0.87129  0.69589  1.0000
  H   H428      1.0  0.14708  0.83452  0.71603  1.0000
  C   C242      1.0  0.33959  0.68466  0.90668  1.0000
  H   H429      1.0  0.28206  0.74575  0.79086  1.0000
  H   H430      1.0  0.16822  0.00255  0.54060  1.0000
  S   S60       1.0  0.43647  0.74275  0.76050  1.0000
  H   H431      1.0  0.23067  0.79032  0.79255  1.0000
  C   C243      1.0  0.35349  0.73182  0.85832  1.0000
  C   C244      1.0  0.42255  0.81526  0.94312  1.0000
  C   C245      1.0  0.45531  0.81341  0.92346  1.0000
  H   H432      1.0  0.29891  0.79559  0.67093  1.0000
  H   H433      1.0  0.21173  0.75114  0.64878  1.0000
  C   C246      1.0  0.28896  0.81665  0.69176  1.0000
  H   H434      1.0  0.39892  0.81762  0.92485  1.0000
  H   H435      1.0  0.45689  0.81428  0.89006  1.0000
  C   C247      1.0  0.14822  0.95709  0.64457  1.0000
  C   C248      1.0  0.12256  0.96431  0.67415  1.0000
  C   C249      1.0  0.15877  0.93065  0.52125  1.0000
  H   H436      1.0  0.23160  0.83545  0.59665  1.0000
  H   H437      1.0  0.03172  0.97977  0.67936  1.0000
  C   C250      1.0  0.16862  0.98471  0.62888  1.0000
  H   H438      1.0  0.10709  0.94315  0.68690  1.0000
  H   H439      1.0  0.25368  0.77119  0.64037  1.0000
  C   C251      1.0  0.33166  0.74757  0.92726  1.0000
  H   H440      1.0  0.34779  0.77016  0.93896  1.0000
  C   C252      1.0  0.11976  0.74301  0.73254  1.0000
  C   C253      1.0  0.13365  0.73288  0.69432  1.0000
  C   C254      1.0  0.15835  0.70553  0.69204  1.0000
  H   H441      1.0  0.12510  0.74583  0.66642  1.0000
  C   C255      1.0  0.17048  0.85204  0.71495  1.0000
  C   C256      1.0  0.25388  0.73877  0.79163  1.0000
  H   H442      1.0  0.29051  0.71373  0.95382  1.0000
  C   C257      1.0  0.15585  0.69827  0.76619  1.0000
  C   C258      1.0  0.41533  0.70184  0.76591  1.0000
  H   H443      1.0  0.27189  0.77578  0.96463  1.0000
  H   H444      1.0  0.12309  0.98958  0.54788  1.0000
  N   N14       1.0  0.24140  0.77871  0.72799  1.0000
  H   H445      1.0  0.36747  0.71833  0.73628  1.0000
  H   H446      1.0  0.19913  0.81074  0.56751  1.0000
  H   H447      1.0  0.29628  0.78372  0.74400  1.0000
  H   H448      1.0  0.27138  0.82166  0.75533  1.0000
  C   C259      1.0  0.36847  0.76918  0.84901  1.0000
  H   H449      1.0  0.26057  0.71397  0.85158  1.0000
  H   H450      1.0  0.36920  0.71325  0.83912  1.0000
  H   H451      1.0  0.30862  0.78288  0.99931  1.0000
  C   C260      1.0  0.00991  0.97304  0.59335  1.0000
  H   H452      1.0  0.31146  0.86368  0.72113  1.0000
  H   H453      1.0  0.39756  0.76776  0.84660  1.0000
  H   H454      1.0  0.12005  0.73308  0.79813  1.0000
  H   H455      1.0  0.40152  0.75123  0.91661  1.0000
  H   H456      1.0  0.21658  0.80815  0.67839  1.0000
  H   H457      1.0  0.20340  0.75685  0.77059  1.0000
  H   H458      1.0  0.19425  0.82826  0.76723  1.0000
  H   H459      1.0  0.21019  0.89130  0.56613  1.0000
  C   C261      1.0  0.21145  0.79994  0.71064  1.0000
  C   C262      1.0  0.48384  0.81041  0.99035  1.0000
  H   H460      1.0  0.33024  0.85220  0.67178  1.0000
  H   H461      1.0  0.05190  0.97466  0.75137  1.0000
  H   H462      1.0  0.36222  0.78859  0.87366  1.0000
  C   C263      1.0  0.35425  0.78391  0.80857  1.0000
  S   S61       1.0  0.06183  0.88433  0.59792  1.0000
  H   H463      1.0  0.23868  0.69147  0.64473  1.0000
  H   H464      1.0  0.38494  0.72765  0.98501  1.0000
  H   H465      1.0  0.24645  0.75901  0.85455  1.0000
  H   H466      1.0  0.35851  0.76507  0.78272  1.0000
  H   H467      1.0  0.02723  0.88868  0.75639  1.0000
  H   H468      1.0  0.31155  0.68425  0.89668  1.0000
  H   H469      1.0  0.40955  0.70923  0.89624  1.0000
  C   C264      1.0  0.25235  0.71500  0.63214  1.0000
  H   H470      1.0  0.09941  0.00403  0.71306  1.0000
  C   C265      1.0  0.48601  0.81095  0.94711  1.0000
  H   H471      1.0  0.44658  0.74262  0.97200  1.0000
  H   H472      1.0  0.22408  0.85296  0.73506  1.0000
  H   H473      1.0  0.36825  0.80881  0.80124  1.0000
  H   H474      1.0  0.27447  0.73573  0.70676  1.0000
  N   N15       1.0  0.35428  0.72155  0.90335  1.0000
  C   C266      1.0  0.39189  0.72363  0.91782  1.0000
  C   C267      1.0  0.31988  0.84132  0.70112  1.0000
  C   C268      1.0  0.13080  0.72549  0.76845  1.0000
  C   C269      1.0  0.38073  0.69715  0.75194  1.0000
  H   H475      1.0  0.26875  0.83223  0.67545  1.0000
  H   H476      1.0  0.18892  0.97914  0.60651  1.0000
  S   S62       1.0  0.02876  0.81514  0.64569  1.0000
  C   C270      1.0  0.29025  0.76281  0.98642  1.0000
  C   C271      1.0  0.24347  0.73390  0.83692  1.0000
  C   C272      1.0  0.16876  0.86723  0.52692  1.0000
  C   C273      1.0  0.23079  0.76734  0.77095  1.0000
  H   H477      1.0  0.25049  0.71294  0.77567  1.0000
  H   H478      1.0  0.02362  0.89320  0.81154  1.0000
  C   C274      1.0  0.27464  0.80022  0.73193  1.0000
  C   C275      1.0  0.20183  0.83398  0.73491  1.0000
  H   H479      1.0  0.18581  0.84217  0.60683  1.0000
  H   H480      1.0  0.18274  0.93751  0.53940  1.0000
  H   H481      1.0  0.16441  0.87691  0.73180  1.0000
  H   H482      1.0  0.32588  0.78966  0.81164  1.0000
  H   H483      1.0  0.34140  0.82685  0.71677  1.0000
  Fe  Fe32      1.0  0.03183  0.87370  0.65591  1.0000
  H   H484      1.0  0.13787  0.92686  0.54473  1.0000
  C   C276      1.0  0.16202  0.69790  0.00126  1.0000
  H   H485      1.0  0.31171  0.75971  0.90657  1.0000
  H   H486      1.0  0.50753  0.80874  0.00875  1.0000
  H   H487      1.0  0.22975  0.72447  0.71197  1.0000
  C   C277      1.0  0.20520  0.83669  0.58213  1.0000
  H   H488      1.0  0.17631  0.85850  0.68231  1.0000
  H   H489      1.0  0.32620  0.72967  0.84610  1.0000
  H   H490      1.0  0.18740  0.78313  0.70872  1.0000
  C   C278      1.0  0.39926  0.71113  0.96228  1.0000
  H   H491      1.0  0.49210  0.88304  0.83702  1.0000
  H   H492      1.0  0.14797  0.86834  0.55104  1.0000
  C   C279      1.0  0.16971  0.68821  0.72786  1.0000
  C   C280      1.0  0.24742  0.74598  0.70186  1.0000
  C   C281      1.0  0.31037  0.73333  0.96454  1.0000
  C   C282      1.0  0.42024  0.81265  0.98622  1.0000
  C   C283      1.0  0.03136  0.99380  0.76075  1.0000
  C   C284      1.0  0.11793  0.99888  0.68870  1.0000
  H   H493      1.0  0.32763  0.72067  0.98761  1.0000
  H   H494      1.0  0.13371  0.70403  0.00465  1.0000
  C   C285      1.0  0.24035  0.74842  0.65461  1.0000
  C   C286      1.0  0.43827  0.71461  0.97239  1.0000
  H   H495      1.0  0.21584  0.72458  0.83896  1.0000
  C   C287      1.0  0.20457  0.86598  0.54999  1.0000
  C   C288      1.0  0.01208  0.00069  0.68612  1.0000
  H   H496      1.0  0.27485  0.75175  0.01233  1.0000
  Fe  Fe33      1.0  0.48882  0.74183  0.79290  1.0000
  H   H497      1.0  0.04334  0.85409  0.78979  1.0000
  H   H498      1.0  0.45433  0.69991  0.94952  1.0000
  S   S63       1.0  0.48787  0.72791  0.86020  1.0000
  H   H499      1.0  0.44332  0.70417  0.00376  1.0000
  H   H500      1.0  0.28113  0.71153  0.63563  1.0000
  S   S64       1.0  0.05944  0.80333  0.52588  1.0000
  H   H501      1.0  0.02913  0.98581  0.57250  1.0000
  S   S65       1.0  0.37884  0.80939  0.00976  1.0000
  C   C289      1.0  0.45098  0.81074  0.00987  1.0000
  H   H502      1.0  0.22629  0.86069  0.52810  1.0000
  H   H503      1.0  0.17713  0.72300  0.00250  1.0000
  H   H504      1.0  0.24600  0.71685  0.59868  1.0000
  H   H505      1.0  0.39186  0.68309  0.96623  1.0000
  C   C290      1.0  0.02244  0.87405  0.78539  1.0000
  H   H506      1.0  0.16877  0.69774  0.66225  1.0000
  H   H507      1.0  0.16443  0.68512  0.79398  1.0000
  H   H508      1.0  0.16604  0.68500  0.97061  1.0000
  C   C291      1.0  0.14343  0.99551  0.52442  1.0000
  H   H509      1.0  0.02463  0.95670  0.61565  1.0000
  H   H510      1.0  0.04059  0.00809  0.78892  1.0000
  H   H511      1.0  0.00898  0.81243  0.74997  1.0000
  H   H512      1.0  0.01306  0.73353  0.85196  1.0000
  H   H513      1.0  0.45946  0.67718  0.79555  1.0000
  H   H514      1.0  0.09714  0.86782  0.51512  1.0000
  C   C292      1.0  0.83682  0.25659  0.28027  1.0000
  C   C293      1.0  0.91760  0.26596  0.47279  1.0000
  H   H515      1.0  0.79393  0.27847  0.40049  1.0000
  H   H516      1.0  0.82987  0.20992  0.42782  1.0000
  Fe  Fe34      1.0  0.59690  0.31268  0.20017  1.0000
  H   H517      1.0  0.94263  0.02848  0.32842  1.0000
  S   S66       1.0  0.63035  0.28950  0.25127  1.0000
  Fe  Fe35      1.0  0.55280  0.30056  0.12297  1.0000
  H   H518      1.0  0.66580  0.21074  0.07166  1.0000
  C   C294      1.0  0.96204  0.27077  0.41898  1.0000
  Fe  Fe36      1.0  0.80027  0.06297  0.27615  1.0000
  S   S67       1.0  0.81146  0.07562  0.34273  1.0000
  Fe  Fe37      1.0  0.75987  0.13117  0.26267  1.0000
  S   S68       1.0  0.76824  0.14951  0.32808  1.0000
  S   S69       1.0  0.73041  0.16030  0.21269  1.0000
  Fe  Fe38      1.0  0.82317  0.12993  0.32014  1.0000
  S   S70       1.0  0.86813  0.15886  0.35026  1.0000
  Fe  Fe39      1.0  0.75551  0.09355  0.34488  1.0000
  S   S71       1.0  0.71900  0.08388  0.39845  1.0000
  S   S72       1.0  0.81627  0.11619  0.25310  1.0000
  S   S73       1.0  0.74301  0.07631  0.27985  1.0000
  C   C295      1.0  0.73239  0.04852  0.42954  1.0000
  C   C296      1.0  0.72117  0.04610  0.47078  1.0000
  H   H519      1.0  0.61312  0.14483  0.41075  1.0000
  C   C297      1.0  0.97402  0.23740  0.48077  1.0000
  H   H520      1.0  0.86268  0.30609  0.36447  1.0000
  C   C298      1.0  0.75508  0.02312  0.41354  1.0000
  C   C299      1.0  0.63183  0.11052  0.25784  1.0000
  H   H521      1.0  0.62767  0.23385  0.09004  1.0000
  H   H522      1.0  0.91746  0.34099  0.35082  1.0000
  C   C300      1.0  0.76678  0.14569  0.47111  1.0000
  C   C301      1.0  0.65963  0.25504  0.23929  1.0000
  C   C302      1.0  0.68312  0.24334  0.26973  1.0000
  C   C303      1.0  0.70555  0.21474  0.26179  1.0000
  C   C304      1.0  0.70460  0.19773  0.22323  1.0000
  C   C305      1.0  0.68156  0.20983  0.19258  1.0000
  C   C306      1.0  0.65905  0.23829  0.20059  1.0000
  H   H523      1.0  0.68352  0.25611  0.29978  1.0000
  H   H524      1.0  0.72312  0.20552  0.28559  1.0000
  H   H525      1.0  0.68066  0.19669  0.16274  1.0000
  H   H526      1.0  0.64087  0.24688  0.17706  1.0000
  C   C307      1.0  0.94398  0.21804  0.26638  1.0000
  C   C308      1.0  0.91835  0.19591  0.24887  1.0000
  C   C309      1.0  0.89464  0.17788  0.27433  1.0000
  C   C310      1.0  0.89613  0.18241  0.31730  1.0000
  C   C311      1.0  0.92089  0.20559  0.33462  1.0000
  C   C312      1.0  0.94505  0.22303  0.30930  1.0000
  H   H527      1.0  0.91749  0.19194  0.21569  1.0000
  H   H528      1.0  0.87577  0.16002  0.26066  1.0000
  H   H529      1.0  0.92187  0.20964  0.36780  1.0000
  H   H530      1.0  0.96464  0.24018  0.32308  1.0000
  C   C313      1.0  0.86609  0.28985  0.33597  1.0000
  H   H531      1.0  0.98100  0.16119  0.34705  1.0000
  H   H532      1.0  0.88968  0.30061  0.27450  1.0000
  C   C314      1.0  0.62020  0.27820  0.02186  1.0000
  C   C315      1.0  0.76699  0.29167  0.30790  1.0000
  N   N16       1.0  0.62778  0.14801  0.32533  1.0000
  C   C316      1.0  0.64920  0.13760  0.28797  1.0000
  C   C317      1.0  0.64712  0.17688  0.34861  1.0000
  C   C318      1.0  0.62275  0.11590  0.35180  1.0000
  C   C319      1.0  0.59235  0.16194  0.31274  1.0000
  C   C320      1.0  0.59296  0.19209  0.28049  1.0000
  C   C321      1.0  0.80786  0.22904  0.42765  1.0000
  C   C322      1.0  0.60273  0.12196  0.39295  1.0000
  C   C323      1.0  0.68021  0.16539  0.37287  1.0000
  C   C324      1.0  0.70084  0.19719  0.38936  1.0000
  C   C325      1.0  0.55599  0.20509  0.27089  1.0000
  C   C326      1.0  0.65359  0.10586  0.21858  1.0000
  H   H533      1.0  0.97839  0.07046  0.29235  1.0000
  H   H534      1.0  0.67464  0.12594  0.29755  1.0000
  H   H535      1.0  0.65660  0.16122  0.26995  1.0000
  H   H536      1.0  0.65558  0.19773  0.32690  1.0000
  H   H537      1.0  0.62954  0.19063  0.37088  1.0000
  H   H538      1.0  0.64855  0.10345  0.35868  1.0000
  H   H539      1.0  0.53967  0.18343  0.25759  1.0000
  H   H540      1.0  0.57520  0.14033  0.30072  1.0000
  H   H541      1.0  0.57825  0.17242  0.34030  1.0000
  S   S74       1.0  0.82372  0.01545  0.24460  1.0000
  H   H542      1.0  0.60829  0.21501  0.29225  1.0000
  C   C327      1.0  0.87253  0.10726  0.49857  1.0000
  H   H543      1.0  0.88498  0.26870  0.34427  1.0000
  H   H544      1.0  0.57452  0.12676  0.38652  1.0000
  C   C328      1.0  0.85302  0.04156  0.43700  1.0000
  H   H545      1.0  0.67299  0.14900  0.39981  1.0000
  H   H546      1.0  0.69779  0.14972  0.35296  1.0000
  H   H547      1.0  0.71052  0.21360  0.36347  1.0000
  H   H548      1.0  0.68421  0.21350  0.41012  1.0000
  H   H549      1.0  0.72382  0.18785  0.40731  1.0000
  C   C329      1.0  0.74166  0.32259  0.31241  1.0000
  S   S75       1.0  0.54014  0.29796  0.19057  1.0000
  H   H550      1.0  0.66845  0.25746  0.08194  1.0000
  S   S76       1.0  0.97516  0.23860  0.23475  1.0000
  H   H551      1.0  0.78524  0.22882  0.27535  1.0000
  H   H552      1.0  0.60467  0.18323  0.25080  1.0000
  C   C330      1.0  0.88475  0.31425  0.30442  1.0000
  H   H553      1.0  0.84437  0.21057  0.21429  1.0000
  C   C331      1.0  0.82163  0.24633  0.35387  1.0000
  H   H554      1.0  0.75703  0.17041  0.48559  1.0000
  H   H555      1.0  0.76324  0.02438  0.38165  1.0000
  H   H556      1.0  0.59032  0.09421  0.44959  1.0000
  C   C332      1.0  0.80929  0.09462  0.48070  1.0000
  H   H557      1.0  0.68052  0.09694  0.22624  1.0000
  H   H558      1.0  0.77977  0.15221  0.44143  1.0000
  H   H559      1.0  0.92846  0.09285  0.33696  1.0000
  C   C333      1.0  0.87447  0.13089  0.45958  1.0000
  H   H560      1.0  0.90750  0.03965  0.21461  1.0000
  H   H561      1.0  0.99275  0.11622  0.42464  1.0000
  C   C334      1.0  0.90793  0.15333  0.45993  1.0000
  H   H562      1.0  0.84004  0.27274  0.41129  1.0000
  C   C335      1.0  0.60535  0.08964  0.42067  1.0000
  H   H563      1.0  0.81420  0.10002  0.44749  1.0000
  H   H564      1.0  0.89791  0.09308  0.50125  1.0000
  H   H565      1.0  0.94173  0.12237  0.29642  1.0000
  C   C336      1.0  0.80480  0.30280  0.32001  1.0000
  H   H566      1.0  0.93787  0.30346  0.32581  1.0000
  H   H567      1.0  0.85210  0.14942  0.45845  1.0000
  H   H568      1.0  0.87402  0.11534  0.43057  1.0000
  C   C337      1.0  0.81613  0.25970  0.39886  1.0000
  C   C338      1.0  0.97462  0.15290  0.37903  1.0000
  H   H569      1.0  0.59444  0.06595  0.40470  1.0000
  H   H570      1.0  0.64114  0.08576  0.19804  1.0000
  H   H571      1.0  0.87253  0.05967  0.42352  1.0000
  H   H572      1.0  0.75701  0.27004  0.32750  1.0000
  C   C339      1.0  0.92243  0.01687  0.20212  1.0000
  H   H573      1.0  0.55749  0.22667  0.24791  1.0000
  H   H574      1.0  0.60762  0.09530  0.33468  1.0000
  H   H575      1.0  0.78343  0.21536  0.41766  1.0000
  H   H576      1.0  0.74395  0.12816  0.46494  1.0000
  H   H577      1.0  0.78890  0.07354  0.48065  1.0000
  N   N17       1.0  0.83150  0.27371  0.32230  1.0000
  H   H578      1.0  0.63689  0.29963  0.03526  1.0000
  S   S77       1.0  0.61058  0.31041  0.13250  1.0000
  H   H579      1.0  0.83422  0.27655  0.25540  1.0000
  C   C340      1.0  0.81653  0.21509  0.22278  1.0000
  H   H580      1.0  0.80567  0.23655  0.20350  1.0000
  H   H581      1.0  0.93152  0.13635  0.45836  1.0000
  H   H582      1.0  0.86887  0.33808  0.29839  1.0000
  C   C341      1.0  0.73350  0.01879  0.49619  1.0000
  C   C342      1.0  0.92839  0.27859  0.43417  1.0000
  H   H583      1.0  0.91099  0.29507  0.41646  1.0000
  H   H584      1.0  0.97495  0.17641  0.39981  1.0000
  H   H585      1.0  0.79735  0.23191  0.34504  1.0000
  H   H586      1.0  0.94810  0.02634  0.19058  1.0000
  H   H587      1.0  0.94775  0.14158  0.37911  1.0000
  H   H588      1.0  0.90210  0.09663  0.29065  1.0000
  H   H589      1.0  0.99943  0.10268  0.37193  1.0000
  H   H590      1.0  0.82690  0.04636  0.42315  1.0000
  H   H591      1.0  0.82170  0.20108  0.28665  1.0000
  H   H592      1.0  0.80428  0.23913  0.45974  1.0000
  H   H593      1.0  0.74008  0.33136  0.34524  1.0000
  S   S78       1.0  0.53005  0.26223  0.07614  1.0000
  C   C343      1.0  0.92938  0.09646  0.30295  1.0000
  H   H594      1.0  0.65526  0.13107  0.20145  1.0000
  H   H595      1.0  0.90791  0.17111  0.43281  1.0000
  H   H596      1.0  0.86409  0.24634  0.27760  1.0000
  H   H597      1.0  0.80151  0.19061  0.21588  1.0000
  H   H598      1.0  0.89825  0.02306  0.14178  1.0000
  C   C344      1.0  0.98507  0.25051  0.44257  1.0000
  H   H599      1.0  0.54333  0.21564  0.29929  1.0000
  C   C345      1.0  0.81328  0.22441  0.26870  1.0000
  H   H600      1.0  0.80383  0.31764  0.34986  1.0000
  H   H601      1.0  0.84241  0.22598  0.35495  1.0000
  H   H602      1.0  0.90758  0.03102  0.29262  1.0000
  H   H603      1.0  0.99176  0.22200  0.49931  1.0000
  C   C346      1.0  0.93683  0.03038  0.29467  1.0000
  H   H604      1.0  0.56589  0.32366  0.04079  1.0000
  H   H605      1.0  0.62971  0.08433  0.27262  1.0000
  H   H606      1.0  0.76616  0.28326  0.27493  1.0000
  H   H607      1.0  0.97046  0.28114  0.38959  1.0000
  H   H608      1.0  0.60533  0.11892  0.24797  1.0000
  H   H609      1.0  0.59772  0.27595  0.04344  1.0000
  H   H610      1.0  0.63319  0.08461  0.42915  1.0000
  C   C347      1.0  0.85150  0.04572  0.48459  1.0000
  H   H611      1.0  0.83219  0.02559  0.49552  1.0000
  N   N18       1.0  0.84203  0.08166  0.50184  1.0000
  C   C348      1.0  0.92043  0.32645  0.32105  1.0000
  H   H612      1.0  0.99082  0.02996  0.23957  1.0000
  H   H613      1.0  0.81290  0.32262  0.29676  1.0000
  C   C349      1.0  0.64036  0.24292  0.02517  1.0000
  H   H614      1.0  0.71500  0.31437  0.30204  1.0000
  C   C350      1.0  0.65121  0.23595  0.06995  1.0000
  H   H615      1.0  0.70359  0.06573  0.48335  1.0000
  C   C351      1.0  0.94037  0.24493  0.49578  1.0000
  H   H616      1.0  0.94925  0.07146  0.24839  1.0000
  S   S79       1.0  0.87653  0.27817  0.49304  1.0000
  C   C352      1.0  0.95062  0.06730  0.28222  1.0000
  H   H617      1.0  0.87757  0.03732  0.49628  1.0000
  C   C353      1.0  0.00086  0.12553  0.39368  1.0000
  C   C354      1.0  0.79235  0.12781  0.50055  1.0000
  H   H618      1.0  0.90936  0.17003  0.48828  1.0000
  H   H619      1.0  0.72679  0.34093  0.08630  1.0000
  H   H620      1.0  0.96272  0.32010  0.50747  1.0000
  H   H621      1.0  0.81239  0.14742  0.51052  1.0000
  Fe  Fe40      1.0  0.86644  0.25462  0.55565  1.0000
  H   H622      1.0  0.80390  0.19549  0.73611  1.0000
  Fe  Fe41      1.0  0.81946  0.20443  0.60326  1.0000
  S   S80       1.0  0.85320  0.20771  0.65975  1.0000
  S   S81       1.0  0.77089  0.17055  0.59877  1.0000
  Fe  Fe42      1.0  0.85443  0.26588  0.64799  1.0000
  Fe  Fe43      1.0  0.89848  0.20411  0.61601  1.0000
  S   S82       1.0  0.81766  0.26291  0.59356  1.0000
  S   S83       1.0  0.86454  0.19589  0.56022  1.0000
  H   H623      1.0  0.90289  0.16592  0.70775  1.0000
  C   C355      1.0  0.79620  0.22123  0.74986  1.0000
  H   H624      1.0  0.80155  0.32715  0.64281  1.0000
  H   H625      1.0  0.84745  0.08361  0.63286  1.0000
  C   C356      1.0  0.57942  0.26159  0.96602  1.0000
  H   H626      1.0  0.87065  0.03435  0.56294  1.0000
  H   H627      1.0  0.69036  0.17049  0.70348  1.0000
  H   H628      1.0  0.71644  0.29443  0.71131  1.0000
  H   H629      1.0  0.62741  0.29645  0.91757  1.0000
  C   C357      1.0  0.77245  0.13143  0.62766  1.0000
  C   C358      1.0  0.79102  0.13004  0.66501  1.0000
  C   C359      1.0  0.79189  0.09869  0.68775  1.0000
  C   C360      1.0  0.77507  0.06823  0.67267  1.0000
  C   C361      1.0  0.75647  0.06964  0.63532  1.0000
  C   C362      1.0  0.75462  0.10132  0.61329  1.0000
  H   H630      1.0  0.80435  0.15316  0.67672  1.0000
  H   H631      1.0  0.80630  0.09776  0.71660  1.0000
  H   H632      1.0  0.74328  0.04642  0.62348  1.0000
  H   H633      1.0  0.73972  0.10224  0.58478  1.0000
  S   S84       1.0  0.90332  0.26271  0.60925  1.0000
  N   N19       1.0  0.60732  0.28781  0.97926  1.0000
  H   H634      1.0  0.94256  0.31981  0.83032  1.0000
  C   C363      1.0  0.55841  0.27091  0.92636  1.0000
  H   H635      1.0  0.64274  0.26015  0.71250  1.0000
  C   C364      1.0  0.63763  0.17473  0.68108  1.0000
  C   C365      1.0  0.72856  0.29752  0.58008  1.0000
  H   H636      1.0  0.91863  0.24614  0.80109  1.0000
  H   H637      1.0  0.51844  0.23002  0.93397  1.0000
  C   C366      1.0  0.90681  0.17339  0.74072  1.0000
  H   H638      1.0  0.74420  0.24054  0.62463  1.0000
  H   H639      1.0  0.55449  0.21765  0.90065  1.0000
  C   C367      1.0  0.79305  0.33682  0.67263  1.0000
  C   C368      1.0  0.94810  0.04729  0.67726  1.0000
  C   C369      1.0  0.92820  0.08136  0.68635  1.0000
  H   H640      1.0  0.53976  0.29247  0.93307  1.0000
  H   H641      1.0  0.62771  0.15571  0.70427  1.0000
  H   H642      1.0  0.70110  0.30865  0.63612  1.0000
  H   H643      1.0  0.90375  0.29625  0.84587  1.0000
  H   H644      1.0  0.73675  0.27479  0.56050  1.0000
  C   C370      1.0  0.56024  0.33052  0.00828  1.0000
  H   H645      1.0  0.91878  0.24038  0.72548  1.0000
  H   H646      1.0  0.75213  0.31301  0.58944  1.0000
  C   C371      1.0  0.67141  0.19198  0.69707  1.0000
  H   H647      1.0  0.94637  0.27954  0.85978  1.0000
  H   H648      1.0  0.59133  0.23528  0.96052  1.0000
  H   H649      1.0  0.80981  0.05960  0.55054  1.0000
  C   C372      1.0  0.93126  0.29314  0.83524  1.0000
  C   C373      1.0  0.70868  0.28480  0.61817  1.0000
  C   C374      1.0  0.97528  0.32547  0.53795  1.0000
  C   C375      1.0  0.69970  0.27021  0.71119  1.0000
  N   N20       1.0  0.00655  0.02324  0.64843  1.0000
  S   S85       1.0  0.94211  0.16545  0.62726  1.0000
  H   H650      1.0  0.94367  0.09898  0.70721  1.0000
  H   H651      1.0  0.00027  0.29822  0.71376  1.0000
  H   H652      1.0  0.88514  0.19085  0.75099  1.0000
  C   C376      1.0  0.63666  0.28665  0.94801  1.0000
  C   C377      1.0  0.94455  0.22707  0.72306  1.0000
  H   H653      1.0  0.90593  0.14892  0.75927  1.0000
  H   H654      1.0  0.96944  0.23295  0.59997  1.0000
  H   H655      1.0  0.75372  0.27811  0.65587  1.0000
  H   H656      1.0  0.66532  0.23153  0.64954  1.0000
  C   C378      1.0  0.66106  0.28179  0.70439  1.0000
  C   C379      1.0  0.86347  0.06099  0.57389  1.0000
  C   C380      1.0  0.74206  0.22183  0.70348  1.0000
  S   S86       1.0  0.84891  0.30038  0.70531  1.0000
  C   C381      1.0  0.69788  0.30459  0.92555  1.0000
  H   H657      1.0  0.64496  0.25899  0.94200  1.0000
  C   C382      1.0  0.98465  0.18317  0.62570  1.0000
  H   H658      1.0  0.99927  0.07338  0.67975  1.0000
  H   H659      1.0  0.87274  0.04381  0.63682  1.0000
  H   H660      1.0  0.78085  0.21657  0.77844  1.0000
  H   H661      1.0  0.82042  0.23608  0.75832  1.0000
  C   C383      1.0  0.68722  0.21756  0.66480  1.0000
  H   H662      1.0  0.76739  0.26775  0.73429  1.0000
  H   H663      1.0  0.57567  0.27939  0.90083  1.0000
  H   H664      1.0  0.90285  0.07515  0.70157  1.0000
  C   C384      1.0  0.77477  0.24260  0.71898  1.0000
  N   N21       1.0  0.71444  0.24313  0.68132  1.0000
  C   C385      1.0  0.94234  0.19156  0.74657  1.0000
  H   H665      1.0  0.66571  0.20571  0.72673  1.0000
  H   H666      1.0  0.75161  0.20000  0.68312  1.0000
  H   H667      1.0  0.56009  0.25741  0.99127  1.0000
  H   H668      1.0  0.73063  0.20895  0.73115  1.0000
  H   H669      1.0  0.69879  0.20074  0.63984  1.0000
  C   C386      1.0  0.73198  0.26080  0.64514  1.0000
  H   H670      1.0  0.98207  0.24774  0.80283  1.0000
  H   H671      1.0  0.70092  0.26048  0.74359  1.0000
  H   H672      1.0  0.98468  0.29091  0.78323  1.0000
  H   H673      1.0  0.97997  0.07091  0.63013  1.0000
  H   H674      1.0  0.79213  0.24857  0.69247  1.0000
  H   H675      1.0  0.68811  0.31421  0.89524  1.0000
  C   C387      1.0  0.66969  0.30901  0.95868  1.0000
  H   H676      1.0  0.68482  0.27091  0.60696  1.0000
  H   H677      1.0  0.92247  0.09540  0.65713  1.0000
  C   C388      1.0  0.85209  0.05726  0.61879  1.0000
  C   C389      1.0  0.81191  0.32820  0.70821  1.0000
  H   H678      1.0  0.93237  0.23510  0.52559  1.0000
  H   H679      1.0  0.92202  0.29067  0.69338  1.0000
  C   C390      1.0  0.55119  0.32376  0.79647  1.0000
  H   H680      1.0  0.65563  0.28905  0.67196  1.0000
  H   H681      1.0  0.91535  0.28571  0.77216  1.0000
  H   H682      1.0  0.88721  0.07806  0.57320  1.0000
  H   H683      1.0  0.82676  0.10231  0.56218  1.0000
  H   H684      1.0  0.55302  0.31416  0.76493  1.0000
  H   H685      1.0  0.66453  0.24320  0.00621  1.0000
  H   H686      1.0  0.68132  0.30144  0.98877  1.0000
  H   H687      1.0  0.72534  0.01730  0.52816  1.0000
  C   C391      1.0  0.51855  0.32959  0.86008  1.0000
  C   C392      1.0  0.57960  0.34209  0.81465  1.0000
  C   C393      1.0  0.83357  0.07671  0.54715  1.0000
  C   C394      1.0  0.59310  0.32479  0.98104  1.0000
  H   H688      1.0  0.61711  0.19491  0.67584  1.0000
  H   H689      1.0  0.64264  0.16017  0.65170  1.0000
  H   H690      1.0  0.53783  0.31440  0.99726  1.0000
  C   C395      1.0  0.93174  0.27173  0.79498  1.0000
  H   H691      1.0  0.72153  0.32018  0.93430  1.0000
  H   H692      1.0  0.70555  0.27649  0.92239  1.0000
  H   H693      1.0  0.71133  0.31476  0.56138  1.0000
  C   C396      1.0  0.94619  0.30554  0.70104  1.0000
  H   H694      1.0  0.96266  0.17319  0.73461  1.0000
  C   C397      1.0  0.95221  0.33217  0.66654  1.0000
  H   H695      1.0  0.94696  0.19545  0.78020  1.0000
  H   H696      1.0  0.94679  0.22049  0.68957  1.0000
  S   S87       1.0  0.77878  0.02859  0.70030  1.0000
  H   H697      1.0  0.77727  0.12000  0.52830  1.0000
  C   C398      1.0  0.52073  0.31714  0.81944  1.0000
  H   H698      1.0  0.65593  0.30734  0.76494  1.0000
  H   H699      1.0  0.52145  0.24771  0.88268  1.0000
  H   H700      1.0  0.82785  0.04101  0.62071  1.0000
  C   C399      1.0  0.99073  0.21752  0.61201  1.0000
  C   C400      1.0  0.53696  0.23954  0.91014  1.0000
  H   H701      1.0  0.97528  0.01811  0.59213  1.0000
  H   H702      1.0  0.98383  0.26952  0.67430  1.0000
  C   C401      1.0  0.97788  0.28063  0.70549  1.0000
  H   H703      1.0  0.58699  0.33409  0.94952  1.0000
  C   C402      1.0  0.98472  0.05518  0.65851  1.0000
  H   H704      1.0  0.94232  0.32098  0.72994  1.0000
  H   H705      1.0  0.81564  0.33533  0.77434  1.0000
  C   C403      1.0  0.96995  0.26562  0.77971  1.0000
  N   N22       1.0  0.97435  0.25112  0.73627  1.0000
  C   C404      1.0  0.65196  0.31353  0.73173  1.0000
  H   H706      1.0  0.87255  0.12598  0.52528  1.0000
  H   H707      1.0  0.95709  0.31843  0.63668  1.0000
  H   H708      1.0  0.95923  0.31242  0.56200  1.0000
  C   C405      1.0  0.80108  0.34178  0.74668  1.0000
  H   H709      1.0  0.62405  0.32078  0.72697  1.0000
  H   H710      1.0  0.95022  0.03254  0.70658  1.0000
  H   H711      1.0  0.00412  0.03864  0.73754  1.0000
  H   H712      1.0  0.93198  0.03132  0.65542  1.0000
  H   H713      1.0  0.66851  0.33662  0.72359  1.0000
  H   H714      1.0  0.66299  0.33735  0.95989  1.0000
  H   H715      1.0  0.00761  0.20900  0.75847  1.0000
  H   H716      1.0  0.62365  0.22049  0.01480  1.0000
  C   C406      1.0  0.00778  0.22980  0.73441  1.0000
  H   H717      1.0  0.61330  0.34333  0.99327  1.0000
  H   H718      1.0  0.78870  0.47741  0.07640  1.0000
  C   C407      1.0  0.52728  0.46919  0.20594  1.0000
  H   H719      1.0  0.57187  0.52933  0.14794  1.0000
  Fe  Fe44      1.0  0.68536  0.58750  0.14561  1.0000
  S   S88       1.0  0.64164  0.58720  0.09930  1.0000
  S   S89       1.0  0.70317  0.53674  0.17471  1.0000
  Fe  Fe45      1.0  0.67306  0.62818  0.06686  1.0000
  H   H720      1.0  0.53607  0.44679  0.31027  1.0000
  Fe  Fe46      1.0  0.61929  0.63151  0.13619  1.0000
  S   S90       1.0  0.56103  0.62712  0.14527  1.0000
  S   S91       1.0  0.71922  0.62560  0.11040  1.0000
  S   S92       1.0  0.66031  0.62878  0.18572  1.0000
  H   H721      1.0  0.55355  0.44058  0.05202  1.0000
  S   S93       1.0  0.62038  0.40899  0.09272  1.0000
  C   C408      1.0  0.54685  0.46588  0.11172  1.0000
  H   H722      1.0  0.80587  0.61600  0.17285  1.0000
  H   H723      1.0  0.56080  0.64797  0.04623  1.0000
  H   H724      1.0  0.56536  0.47932  0.25535  1.0000
  C   C409      1.0  0.64180  0.44456  0.11740  1.0000
  C   C410      1.0  0.65352  0.44257  0.15839  1.0000
  C   C411      1.0  0.67283  0.47071  0.17598  1.0000
  C   C412      1.0  0.68037  0.50076  0.15258  1.0000
  C   C413      1.0  0.66893  0.50231  0.11157  1.0000
  C   C414      1.0  0.64918  0.47468  0.09433  1.0000
  H   H725      1.0  0.64831  0.41919  0.17626  1.0000
  H   H726      1.0  0.68182  0.46926  0.20769  1.0000
  H   H727      1.0  0.67618  0.52440  0.09260  1.0000
  H   H728      1.0  0.63989  0.47667  0.06285  1.0000
  H   H729      1.0  0.62691  0.55587  0.18323  1.0000
  H   H730      1.0  0.51534  0.51280  0.11528  1.0000
  C   C415      1.0  0.76895  0.60510  0.22273  1.0000
  H   H731      1.0  0.71721  0.55828  0.40252  1.0000
  C   C416      1.0  0.61652  0.54839  0.21393  1.0000
  S   S94       1.0  0.58619  0.37119  0.20148  1.0000
  H   H732      1.0  0.93317  0.34417  0.29837  1.0000
  H   H733      1.0  0.71030  0.63043  0.25962  1.0000
  H   H734      1.0  0.69968  0.56145  0.35085  1.0000
  H   H735      1.0  0.77279  0.58534  0.38116  1.0000
  C   C417      1.0  0.71385  0.39433  0.06681  1.0000
  H   H736      1.0  0.73838  0.58152  0.29535  1.0000
  H   H737      1.0  0.80683  0.64107  0.24697  1.0000
  C   C418      1.0  0.74956  0.58877  0.36071  1.0000
  C   C419      1.0  0.76133  0.58898  0.31477  1.0000
  C   C420      1.0  0.72346  0.38839  0.02096  1.0000
  H   H738      1.0  0.56773  0.53621  0.24271  1.0000
  H   H739      1.0  0.61775  0.54601  0.02052  1.0000
  H   H740      1.0  0.62296  0.56970  0.23649  1.0000
  H   H741      1.0  0.51007  0.53962  0.22271  1.0000
  H   H742      1.0  0.56498  0.56900  0.20382  1.0000
  H   H743      1.0  0.72574  0.46258  0.06816  1.0000
  H   H744      1.0  0.84789  0.65694  0.29151  1.0000
  C   C421      1.0  0.56683  0.51549  0.17769  1.0000
  C   C422      1.0  0.54028  0.66779  0.15310  1.0000
  H   H745      1.0  0.75211  0.58250  0.23123  1.0000
  C   C423      1.0  0.57689  0.54320  0.21149  1.0000
  C   C424      1.0  0.80734  0.63215  0.32996  1.0000
  H   H746      1.0  0.51467  0.55441  0.05441  1.0000
  H   H747      1.0  0.56895  0.58232  0.04995  1.0000
  H   H748      1.0  0.76120  0.51570  0.08157  1.0000
  H   H749      1.0  0.52458  0.37210  0.02682  1.0000
  Fe  Fe47      1.0  0.69045  0.66722  0.14692  1.0000
  H   H750      1.0  0.78006  0.56673  0.31067  1.0000
  Fe  Fe48      1.0  0.53073  0.35613  0.18507  1.0000
  N   N23       1.0  0.52978  0.50098  0.17840  1.0000
  H   H751      1.0  0.57204  0.48002  0.10712  1.0000
  C   C425      1.0  0.53665  0.47493  0.25210  1.0000
  C   C426      1.0  0.71324  0.64450  0.28951  1.0000
  H   H752      1.0  0.82507  0.60913  0.33403  1.0000
  Fe  Fe49      1.0  0.59643  0.36779  0.13338  1.0000
  H   H753      1.0  0.62951  0.52379  0.22412  1.0000
  H   H754      1.0  0.69845  0.36495  0.12109  1.0000
  H   H755      1.0  0.73665  0.61386  0.36960  1.0000
  C   C427      1.0  0.73953  0.47466  0.04186  1.0000
  C   C428      1.0  0.77078  0.49527  0.05950  1.0000
  C   C429      1.0  0.72418  0.55839  0.36918  1.0000
  H   H756      1.0  0.73650  0.40622  0.08366  1.0000
  H   H757      1.0  0.54502  0.44798  0.19484  1.0000
  C   C430      1.0  0.83068  0.66407  0.31792  1.0000
  C   C431      1.0  0.52763  0.44250  0.27769  1.0000
  H   H758      1.0  0.58613  0.49347  0.17871  1.0000
  H   H759      1.0  0.81521  0.59671  0.26074  1.0000
  H   H760      1.0  0.52656  0.47925  0.05055  1.0000
  H   H761      1.0  0.68021  0.44862  0.02123  1.0000
  H   H762      1.0  0.80709  0.57120  0.19184  1.0000
  C   C432      1.0  0.78976  0.59376  0.18453  1.0000
  C   C433      1.0  0.75226  0.65336  0.29931  1.0000
  H   H763      1.0  0.79674  0.63839  0.36122  1.0000
  H   H764      1.0  0.75021  0.34505  0.29301  1.0000
  H   H765      1.0  0.51759  0.61480  0.07406  1.0000
  H   H766      1.0  0.73647  0.53273  0.36118  1.0000
  C   C434      1.0  0.70454  0.35968  0.08801  1.0000
  H   H767      1.0  0.66365  0.67101  0.27928  1.0000
  H   H768      1.0  0.69114  0.41183  0.07002  1.0000
  H   H769      1.0  0.70164  0.62763  0.31375  1.0000
  H   H770      1.0  0.77474  0.43324  0.02085  1.0000
  N   N24       1.0  0.77780  0.62294  0.30029  1.0000
  C   C435      1.0  0.79396  0.61670  0.25827  1.0000
  H   H771      1.0  0.77138  0.58513  0.15968  1.0000
  C   C436      1.0  0.54293  0.65459  0.02007  1.0000
  H   H772      1.0  0.54130  0.41884  0.26539  1.0000
  H   H773      1.0  0.68090  0.34757  0.07340  1.0000
  H   H774      1.0  0.55225  0.44126  0.12873  1.0000
  H   H775      1.0  0.75215  0.62751  0.21344  1.0000
  H   H776      1.0  0.75209  0.66766  0.32959  1.0000
  C   C437      1.0  0.53303  0.45550  0.06883  1.0000
  H   H777      1.0  0.87143  0.65323  0.36369  1.0000
  S   S95       1.0  0.54051  0.35769  0.11721  1.0000
  H   H778      1.0  0.56973  0.38595  0.02171  1.0000
  H   H779      1.0  0.50935  0.43846  0.07150  1.0000
  S   S96       1.0  0.64696  0.67319  0.10011  1.0000
  C   C438      1.0  0.51993  0.48933  0.13498  1.0000
  C   C439      1.0  0.57674  0.58545  0.01714  1.0000
  H   H780      1.0  0.72134  0.49400  0.02778  1.0000
  H   H781      1.0  0.52225  0.49746  0.26575  1.0000
  H   H782      1.0  0.76109  0.67336  0.27652  1.0000
  H   H783      1.0  0.78548  0.50861  0.03446  1.0000
  H   H784      1.0  0.74967  0.37576  0.02159  1.0000
  C   C440      1.0  0.85474  0.67549  0.35359  1.0000
  H   H785      1.0  0.59705  0.60652  0.01589  1.0000
  Fe  Fe50      1.0  0.69828  0.46897  0.85235  1.0000
  S   S97       1.0  0.69368  0.48395  0.78543  1.0000
  S   S98       1.0  0.73385  0.49602  0.89898  1.0000
  Fe  Fe51      1.0  0.64400  0.41086  0.84440  1.0000
  S   S99       1.0  0.63420  0.42125  0.77759  1.0000
  H   H786      1.0  0.77723  0.37144  0.96280  1.0000
  Fe  Fe52      1.0  0.69290  0.42537  0.77280  1.0000
  S   S100      1.0  0.71548  0.39997  0.71499  1.0000
  Fe  Fe53      1.0  0.63574  0.47837  0.79603  1.0000
  S   S101      1.0  0.59606  0.51539  0.76844  1.0000
  S   S102      1.0  0.70257  0.41068  0.83903  1.0000
  S   S103      1.0  0.64046  0.46746  0.86372  1.0000
  C   C441      1.0  0.73382  0.40840  0.95073  1.0000
  C   C442      1.0  0.68859  0.43808  0.99095  1.0000
  C   C443      1.0  0.57919  0.54920  0.79994  1.0000
  C   C444      1.0  0.58812  0.55186  0.84181  1.0000
  C   C445      1.0  0.57561  0.58007  0.86577  1.0000
  C   C446      1.0  0.55701  0.57442  0.78242  1.0000
  H   H787      1.0  0.60513  0.53262  0.85562  1.0000
  H   H788      1.0  0.58328  0.58234  0.89791  1.0000
  H   H789      1.0  0.61564  0.67559  0.84664  1.0000
  C   C447      1.0  0.75261  0.37234  0.71375  1.0000
  H   H790      1.0  0.58505  0.41397  0.68925  1.0000
  C   C448      1.0  0.71751  0.57148  0.98630  1.0000
  H   H791      1.0  0.56007  0.44759  0.81278  1.0000
  C   C449      1.0  0.57754  0.35359  0.85582  1.0000
  H   H792      1.0  0.59909  0.61465  0.72762  1.0000
  C   C450      1.0  0.62345  0.43565  0.97419  1.0000
  C   C451      1.0  0.68702  0.58805  0.97248  1.0000
  H   H793      1.0  0.97531  0.35434  0.54390  1.0000
  H   H794      1.0  0.53357  0.48102  0.74774  1.0000
  C   C452      1.0  0.77215  0.39551  0.94460  1.0000
  C   C453      1.0  0.51651  0.45810  0.73982  1.0000
  C   C454      1.0  0.54069  0.42653  0.72856  1.0000
  C   C455      1.0  0.77916  0.38646  0.89920  1.0000
  H   H795      1.0  0.66256  0.40524  0.94322  1.0000
  H   H796      1.0  0.50864  0.65252  0.95274  1.0000
  H   H797      1.0  0.79154  0.41602  0.95388  1.0000
  C   C456      1.0  0.64573  0.63511  0.78882  1.0000
  H   H798      1.0  0.55594  0.44662  0.66812  1.0000
  S   S104      1.0  0.67122  0.62626  0.99721  1.0000
  H   H799      1.0  0.55426  0.41582  0.75593  1.0000
  C   C457      1.0  0.67024  0.57561  0.93651  1.0000
  C   C458      1.0  0.68378  0.54667  0.91445  1.0000
  C   C459      1.0  0.71489  0.53080  0.92752  1.0000
  H   H800      1.0  0.57530  0.52862  0.00608  1.0000
  C   C460      1.0  0.56848  0.43710  0.69697  1.0000
  H   H801      1.0  0.64681  0.58855  0.92555  1.0000
  H   H802      1.0  0.67086  0.53753  0.88651  1.0000
  H   H803      1.0  0.53169  0.41220  0.82965  1.0000
  S   S105      1.0  0.61424  0.37139  0.88175  1.0000
  H   H804      1.0  0.67184  0.66225  0.91304  1.0000
  H   H805      1.0  0.76328  0.37422  0.77916  1.0000
  H   H806      1.0  0.55603  0.60548  0.95982  1.0000
  H   H807      1.0  0.53067  0.57117  0.98117  1.0000
  C   C461      1.0  0.55510  0.60637  0.84767  1.0000
  H   H808      1.0  0.69044  0.46152  0.97041  1.0000
  C   C462      1.0  0.54877  0.36904  0.00809  1.0000
  H   H809      1.0  0.70476  0.63523  0.86896  1.0000
  C   C463      1.0  0.73179  0.54341  0.96332  1.0000
  H   H810      1.0  0.97492  0.34957  0.67403  1.0000
  C   C464      1.0  0.74627  0.59059  0.83142  1.0000
  H   H811      1.0  0.62644  0.45996  0.95564  1.0000
  C   C465      1.0  0.54488  0.45025  0.87630  1.0000
  C   C466      1.0  0.61606  0.65727  0.76906  1.0000
  H   H812      1.0  0.51407  0.49015  0.81576  1.0000
  H   H813      1.0  0.77636  0.41034  0.87980  1.0000
  H   H814      1.0  0.55125  0.47876  0.87957  1.0000
  H   H815      1.0  0.66488  0.62986  0.76364  1.0000
  H   H816      1.0  0.52532  0.40468  0.71436  1.0000
  N   N25       1.0  0.52078  0.62293  0.00776  1.0000
  H   H817      1.0  0.62350  0.63300  0.86659  1.0000
  H   H818      1.0  0.60243  0.41916  0.95993  1.0000
  C   C467      1.0  0.68963  0.62466  0.84222  1.0000
  C   C468      1.0  0.65772  0.41488  0.97514  1.0000
  H   H819      1.0  0.92847  0.34878  0.66301  1.0000
  C   C469      1.0  0.76349  0.35867  0.67543  1.0000
  H   H820      1.0  0.76055  0.46326  0.98220  1.0000
  H   H821      1.0  0.67500  0.60162  0.85468  1.0000
  C   C470      1.0  0.54527  0.60321  0.80612  1.0000
  N   N26       1.0  0.66409  0.65150  0.82590  1.0000
  C   C471      1.0  0.75121  0.44709  0.00872  1.0000
  H   H822      1.0  0.54972  0.57226  0.75010  1.0000
  N   N27       1.0  0.72403  0.42055  0.99386  1.0000
  H   H823      1.0  0.60346  0.34622  0.79736  1.0000
  H   H824      1.0  0.71656  0.38635  0.94022  1.0000
  H   H825      1.0  0.56795  0.43491  0.88669  1.0000
  S   S106      1.0  0.54342  0.64339  0.87745  1.0000
  H   H826      1.0  0.72678  0.63043  0.79016  1.0000
  H   H827      1.0  0.54297  0.37796  0.97627  1.0000
  C   C472      1.0  0.71592  0.60949  0.81018  1.0000
  C   C473      1.0  0.54655  0.34826  0.87790  1.0000
  H   H828      1.0  0.70242  0.58975  0.78997  1.0000
  H   H829      1.0  0.72926  0.42982  0.92828  1.0000
  H   H830      1.0  0.60115  0.55315  0.96913  1.0000
  C   C474      1.0  0.77141  0.36372  0.74951  1.0000
  C   C475      1.0  0.59364  0.55116  0.00220  1.0000
  H   H831      1.0  0.76139  0.60916  0.85147  1.0000
  H   H832      1.0  0.73623  0.56857  0.85051  1.0000
  H   H833      1.0  0.76420  0.57944  0.80772  1.0000
  H   H834      1.0  0.58579  0.45815  0.70973  1.0000
  C   C476      1.0  0.54506  0.59568  0.98955  1.0000
  H   H835      1.0  0.70560  0.36800  0.00765  1.0000
  H   H836      1.0  0.52898  0.62313  0.79211  1.0000
  H   H837      1.0  0.63423  0.60897  0.79698  1.0000
  H   H838      1.0  0.74924  0.36547  0.64764  1.0000
  C   C477      1.0  0.60595  0.64308  0.72622  1.0000
  C   C478      1.0  0.53647  0.44095  0.83119  1.0000
  H   H839      1.0  0.80635  0.37653  0.89569  1.0000
  H   H840      1.0  0.56036  0.66242  0.99400  1.0000
  H   H841      1.0  0.75621  0.53172  0.97303  1.0000
  H   H842      1.0  0.58287  0.65770  0.71441  1.0000
  H   H843      1.0  0.76068  0.36576  0.88787  1.0000
  H   H844      1.0  0.54429  0.35778  0.90924  1.0000
  H   H845      1.0  0.73088  0.58129  0.01370  1.0000
  H   H846      1.0  0.59231  0.65628  0.78864  1.0000
  H   H847      1.0  0.62796  0.64671  0.70423  1.0000
  C   C479      1.0  0.63661  0.65822  0.85855  1.0000
  H   H848      1.0  0.52240  0.44352  0.89658  1.0000
  H   H849      1.0  0.61191  0.64839  0.93900  1.0000
  H   H850      1.0  0.65358  0.39221  0.99594  1.0000
  H   H851      1.0  0.61522  0.44293  0.00603  1.0000
  C   C480      1.0  0.64908  0.67595  0.89937  1.0000
  C   C481      1.0  0.61998  0.67584  0.93184  1.0000
  Fe  Fe54      1.0  0.93049  0.82864  0.30736  1.0000
  S   S107      1.0  0.90436  0.84387  0.36656  1.0000
  Fe  Fe55      1.0  0.88074  0.76721  0.29212  1.0000
  S   S108      1.0  0.85025  0.77770  0.35024  1.0000
  S   S109      1.0  0.86824  0.72326  0.24662  1.0000
  Fe  Fe56      1.0  0.85436  0.83449  0.33226  1.0000
  S   S110      1.0  0.81127  0.87334  0.34395  1.0000
  Fe  Fe57      1.0  0.90313  0.78621  0.37979  1.0000
  S   S111      1.0  0.91100  0.76913  0.44585  1.0000
  S   S112      1.0  0.88021  0.82344  0.27156  1.0000
  S   S113      1.0  0.93384  0.77115  0.32301  1.0000
  H   H852      1.0  0.83914  0.68534  0.38022  1.0000
  N   N28       1.0  0.95097  0.99864  0.27123  1.0000
  C   C482      1.0  0.71697  0.82941  0.33265  1.0000
  H   H853      1.0  0.97861  0.78504  0.40958  1.0000
  C   C483      1.0  0.98118  0.78640  0.44289  1.0000
  C   C484      1.0  0.95208  0.77982  0.46790  1.0000
  C   C485      1.0  0.92114  0.93604  0.35933  1.0000
  H   H854      1.0  0.77472  0.67709  0.15634  1.0000
  H   H855      1.0  0.73436  0.83175  0.36020  1.0000
  H   H856      1.0  0.85072  0.94632  0.22885  1.0000
  C   C486      1.0  0.81491  0.91282  0.31644  1.0000
  C   C487      1.0  0.83440  0.91425  0.27998  1.0000
  C   C488      1.0  0.83618  0.94562  0.25750  1.0000
  C   C489      1.0  0.78125  0.69502  0.18145  1.0000
  C   C490      1.0  0.71517  0.83417  0.25418  1.0000
  C   C491      1.0  0.79736  0.94297  0.33053  1.0000
  H   H857      1.0  0.84778  0.89111  0.26884  1.0000
  H   H858      1.0  0.83455  0.80076  0.50472  1.0000
  C   C492      1.0  0.66137  0.80095  0.14075  1.0000
  H   H859      1.0  0.78189  0.94185  0.35850  1.0000
  C   C493      1.0  0.82481  0.72127  0.22806  1.0000
  C   C494      1.0  0.79870  0.74232  0.24559  1.0000
  C   C495      1.0  0.76688  0.99566  0.43858  1.0000
  H   H860      1.0  0.78860  0.83941  0.49622  1.0000
  H   H861      1.0  0.80521  0.76042  0.27053  1.0000
  H   H862      1.0  0.96810  0.87591  0.48316  1.0000
  C   C496      1.0  0.95222  0.96828  0.30117  1.0000
  H   H863      1.0  0.91703  0.91646  0.48195  1.0000
  C   C497      1.0  0.54155  0.72991  0.17227  1.0000
  H   H864      1.0  0.84597  0.98431  0.43855  1.0000
  H   H865      1.0  0.72721  0.91050  0.26686  1.0000
  H   H866      1.0  0.93222  0.95321  0.38415  1.0000
  H   H867      1.0  0.91577  0.97969  0.15072  1.0000
  H   H868      1.0  0.55604  0.75302  0.18242  1.0000
  H   H869      1.0  0.89927  0.89409  0.43732  1.0000
  H   H870      1.0  0.97057  0.97470  0.32716  1.0000
  N   N29       1.0  0.73107  0.84648  0.21386  1.0000
  C   C498      1.0  0.77018  0.83999  0.21354  1.0000
  H   H871      1.0  0.76043  0.81933  0.29253  1.0000
  C   C499      1.0  0.71503  0.82464  0.17914  1.0000
  C   C500      1.0  0.72250  0.88468  0.20612  1.0000
  C   C501      1.0  0.73936  0.91224  0.23582  1.0000
  C   C502      1.0  0.78977  0.84993  0.17328  1.0000
  C   C503      1.0  0.67424  0.82311  0.17759  1.0000
  H   H872      1.0  0.93482  0.96332  0.22161  1.0000
  C   C504      1.0  0.73326  0.94974  0.22054  1.0000
  C   C505      1.0  0.82920  0.84389  0.17771  1.0000
  H   H873      1.0  0.77537  0.81163  0.21930  1.0000
  H   H874      1.0  0.78369  0.85417  0.23927  1.0000
  H   H875      1.0  0.89523  0.92589  0.36959  1.0000
  H   H876      1.0  0.96427  0.89907  0.43482  1.0000
  H   H877      1.0  0.72454  0.79688  0.18071  1.0000
  H   H878      1.0  0.72346  0.83467  0.14851  1.0000
  H   H879      1.0  0.72937  0.89192  0.17385  1.0000
  H   H880      1.0  0.69376  0.88904  0.20829  1.0000
  H   H881      1.0  0.76804  0.90879  0.23859  1.0000
  H   H882      1.0  0.96313  0.94415  0.28658  1.0000
  H   H883      1.0  0.78071  0.83340  0.14683  1.0000
  H   H884      1.0  0.78590  0.87811  0.16577  1.0000
  H   H885      1.0  0.66291  0.84977  0.17425  1.0000
  H   H886      1.0  0.66330  0.81103  0.20593  1.0000
  C   C506      1.0  0.81600  0.69756  0.19604  1.0000
  H   H887      1.0  0.87523  0.99321  0.17522  1.0000
  H   H888      1.0  0.74655  0.95387  0.19042  1.0000
  H   H889      1.0  0.70477  0.95508  0.21716  1.0000
  H   H890      1.0  0.74438  0.96896  0.24323  1.0000
  H   H891      1.0  0.83463  0.81603  0.18591  1.0000
  H   H892      1.0  0.84247  0.84969  0.14799  1.0000
  H   H893      1.0  0.84039  0.86162  0.20190  1.0000
  H   H894      1.0  0.70148  0.69638  0.26461  1.0000
  C   C507      1.0  0.76405  0.73978  0.23098  1.0000
  C   C508      1.0  0.52238  0.68794  0.03369  1.0000
  H   H895      1.0  0.93897  0.91337  0.35402  1.0000
  S   S114      1.0  0.71183  0.71566  0.18003  1.0000
  C   C509      1.0  0.54710  0.71652  0.05051  1.0000
  C   C510      1.0  0.75526  0.71639  0.19870  1.0000
  H   H896      1.0  0.67031  0.81256  0.11116  1.0000
  H   H897      1.0  0.89982  0.98382  0.24782  1.0000
  H   H898      1.0  0.95122  0.85361  0.43772  1.0000
  H   H899      1.0  0.70649  0.80206  0.33098  1.0000
  H   H900      1.0  0.85904  0.92738  0.49451  1.0000
  H   H901      1.0  0.78409  0.97585  0.42571  1.0000
  H   H902      1.0  0.78677  0.99799  0.31986  1.0000
  H   H903      1.0  0.74392  0.75579  0.24496  1.0000
  H   H904      1.0  0.83615  0.68124  0.18238  1.0000
  C   C511      1.0  0.91459  0.89052  0.46616  1.0000
  H   H905      1.0  0.69497  0.84823  0.33652  1.0000
  C   C512      1.0  0.91637  0.95675  0.31949  1.0000
  H   H906      1.0  0.68975  0.84770  0.25991  1.0000
  C   C513      1.0  0.75649  0.99357  0.48000  1.0000
  H   H907      1.0  0.90278  0.93925  0.29681  1.0000
  H   H908      1.0  0.63224  0.79993  0.14058  1.0000
  S   S115      1.0  0.97144  0.86537  0.28195  1.0000
  N   N30       1.0  0.85930  0.87134  0.50695  1.0000
  H   H909      1.0  0.99206  0.98072  0.19475  1.0000
  H   H910      1.0  0.70862  0.80554  0.25235  1.0000
  C   C514      1.0  0.83527  0.86562  0.47016  1.0000
  C   C515      1.0  0.81960  0.97607  0.27224  1.0000
  C   C516      1.0  0.79538  0.86422  0.48014  1.0000
  S   S116      1.0  0.77402  0.95949  0.51008  1.0000
  C   C517      1.0  0.77302  0.86572  0.44099  1.0000
  H   H911      1.0  0.84178  0.84077  0.45328  1.0000
  H   H912      1.0  0.83946  0.88671  0.44690  1.0000
  C   C518      1.0  0.89644  0.86298  0.49416  1.0000
  H   H913      1.0  0.89713  0.83742  0.47713  1.0000
  H   H914      1.0  0.74861  0.86487  0.29751  1.0000
  C   C519      1.0  0.55911  0.69777  0.16592  1.0000
  H   H915      1.0  0.58710  0.69614  0.17120  1.0000
  C   C520      1.0  0.95178  0.87904  0.45487  1.0000
  H   H916      1.0  0.53156  0.73960  0.06109  1.0000
  H   H917      1.0  0.74482  0.86387  0.44925  1.0000
  H   H918      1.0  0.77734  0.89113  0.42491  1.0000
  H   H919      1.0  0.77952  0.84345  0.41990  1.0000
  H   H920      1.0  0.67123  0.77352  0.14286  1.0000
  C   C521      1.0  0.73798  0.83794  0.29382  1.0000
  C   C522      1.0  0.80010  0.97472  0.30875  1.0000
  H   H921      1.0  0.00306  0.78682  0.21170  1.0000
  H   H922      1.0  0.89888  0.97928  0.32637  1.0000
  C   C523      1.0  0.92673  0.98876  0.23606  1.0000
  H   H923      1.0  0.78730  0.88627  0.50043  1.0000
  C   C524      1.0  0.90168  0.00214  0.16524  1.0000
  H   H924      1.0  0.56242  0.70662  0.07722  1.0000
  H   H925      1.0  0.99673  0.94944  0.23497  1.0000
  C   C525      1.0  0.00318  0.97675  0.22617  1.0000
  H   H926      1.0  0.86213  0.00110  0.39032  1.0000
  C   C526      1.0  0.86376  0.00412  0.42451  1.0000
  H   H927      1.0  0.89110  0.99873  0.43450  1.0000
  H   H928      1.0  0.87222  0.69716  0.34317  1.0000
  H   H929      1.0  0.00386  0.81777  0.34109  1.0000
  C   C527      1.0  0.98814  0.00486  0.25652  1.0000
  H   H930      1.0  0.81451  0.68707  0.30920  1.0000
  H   H931      1.0  0.56549  0.72526  0.02602  1.0000
  C   C528      1.0  0.95578  0.78150  0.51111  1.0000
  H   H932      1.0  0.69089  0.69135  0.31864  1.0000
  H   H933      1.0  0.00613  0.00771  0.28369  1.0000
  C   C529      1.0  0.69107  0.67791  0.28798  1.0000
  H   H934      1.0  0.85074  0.79187  0.59742  1.0000
  H   H935      1.0  0.69176  0.90464  0.74888  1.0000
  S   S117      1.0  0.98921  0.91098  0.67631  1.0000
  S   S118      1.0  0.72032  0.97451  0.61932  1.0000
  H   H936      1.0  0.51398  0.87360  0.78887  1.0000
  Fe  Fe58      1.0  0.53459  0.69485  0.84440  1.0000
  S   S119      1.0  0.53318  0.70537  0.77620  1.0000
  C   C530      1.0  0.95034  0.78077  0.71406  1.0000
  S   S120      1.0  0.75553  0.92659  0.69417  1.0000
  Fe  Fe59      1.0  0.56792  0.75238  0.79045  1.0000
  S   S121      1.0  0.62166  0.76296  0.76272  1.0000
  S   S122      1.0  0.57249  0.73870  0.85748  1.0000
  Fe  Fe60      1.0  0.79151  0.90493  0.64526  1.0000
  C   C531      1.0  0.98657  0.74054  0.84027  1.0000
  S   S123      1.0  0.83183  0.86189  0.65267  1.0000
  Fe  Fe61      1.0  0.71320  0.92004  0.64602  1.0000
  S   S124      1.0  0.65783  0.90189  0.66191  1.0000
  S   S125      1.0  0.74861  0.89474  0.59888  1.0000
  C   C532      1.0  0.63116  0.80120  0.73380  1.0000
  C   C533      1.0  0.66616  0.80881  0.72346  1.0000
  C   C534      1.0  0.67477  0.83946  0.70129  1.0000
  C   C535      1.0  0.64835  0.86265  0.68906  1.0000
  C   C536      1.0  0.61334  0.85493  0.69931  1.0000
  C   C537      1.0  0.60475  0.82437  0.72160  1.0000
  H   H937      1.0  0.68675  0.79098  0.73270  1.0000
  H   H938      1.0  0.70180  0.84511  0.69353  1.0000
  H   H939      1.0  0.59275  0.87269  0.68985  1.0000
  H   H940      1.0  0.57769  0.81864  0.72905  1.0000
  H   H941      1.0  0.62965  0.68855  0.96082  1.0000
  H   H942      1.0  0.62699  0.91598  0.75912  1.0000
  H   H943      1.0  0.54917  0.89277  0.87213  1.0000
  H   H944      1.0  0.68104  0.94335  0.94083  1.0000
  H   H945      1.0  0.94872  0.79797  0.68639  1.0000
  C   C538      1.0  0.94565  0.89805  0.66694  1.0000
  C   C539      1.0  0.93784  0.86530  0.64900  1.0000
  C   C540      1.0  0.90281  0.85416  0.64528  1.0000
  C   C541      1.0  0.87545  0.87636  0.65785  1.0000
  C   C542      1.0  0.88326  0.90974  0.67420  1.0000
  C   C543      1.0  0.91835  0.92042  0.67912  1.0000
  H   H946      1.0  0.95876  0.84826  0.63875  1.0000
  H   H947      1.0  0.89691  0.82839  0.63242  1.0000
  H   H948      1.0  0.86223  0.92699  0.68387  1.0000
  H   H949      1.0  0.92428  0.94586  0.69287  1.0000
  S   S126      1.0  0.80526  0.95790  0.62020  1.0000
  H   H950      1.0  0.67205  0.87962  0.82403  1.0000
  H   H951      1.0  0.97846  0.73262  0.73046  1.0000
  H   H952      1.0  0.59674  0.69057  0.92092  1.0000
  H   H953      1.0  0.66213  0.70751  0.81420  1.0000
  C   C544      1.0  0.98404  0.82739  0.74989  1.0000
  H   H954      1.0  0.63723  0.94004  0.80572  1.0000
  Fe  Fe62      1.0  0.75989  0.94973  0.57695  1.0000
  H   H955      1.0  0.88316  0.78335  0.76945  1.0000
  C   C545      1.0  0.85415  0.83149  0.76251  1.0000
  H   H956      1.0  0.82868  0.81807  0.75628  1.0000
  H   H957      1.0  0.70538  0.75388  0.83041  1.0000
  H   H958      1.0  0.87733  0.79906  0.52745  1.0000
  H   H959      1.0  0.97732  0.75554  0.63943  1.0000
  C   C546      1.0  0.65434  0.93408  0.93195  1.0000
  S   S127      1.0  0.52326  0.78990  0.80096  1.0000
  H   H960      1.0  0.82900  0.91427  0.53247  1.0000
  H   H961      1.0  0.54492  0.84931  0.85030  1.0000
  H   H962      1.0  0.85483  0.85619  0.74431  1.0000
  H   H963      1.0  0.92137  0.84658  0.72980  1.0000
  C   C547      1.0  0.65590  0.91453  0.89045  1.0000
  H   H964      1.0  0.86745  0.85216  0.56880  1.0000
  C   C548      1.0  0.61875  0.90229  0.87625  1.0000
  C   C549      1.0  0.64568  0.91787  0.78556  1.0000
  N   N31       1.0  0.61666  0.87714  0.83973  1.0000
  H   H965      1.0  0.94054  0.79412  0.81767  1.0000
  C   C550      1.0  0.61678  0.83925  0.85381  1.0000
  C   C551      1.0  0.58241  0.88300  0.81710  1.0000
  H   H966      1.0  0.62389  0.68522  0.76554  1.0000
  H   H967      1.0  0.87971  0.79951  0.71713  1.0000
  H   H968      1.0  0.64541  0.86108  0.78526  1.0000
  C   C552      1.0  0.84927  0.84783  0.54232  1.0000
  C   C553      1.0  0.65025  0.82648  0.87633  1.0000
  C   C554      1.0  0.64810  0.78710  0.88553  1.0000
  H   H969      1.0  0.67438  0.89238  0.89376  1.0000
  H   H970      1.0  0.93707  0.75628  0.78579  1.0000
  C   C555      1.0  0.98626  0.85667  0.78377  1.0000
  H   H971      1.0  0.58100  0.91041  0.80533  1.0000
  H   H972      1.0  0.67244  0.77856  0.90145  1.0000
  H   H973      1.0  0.59503  0.83426  0.87587  1.0000
  H   H974      1.0  0.61191  0.82126  0.82684  1.0000
  H   H975      1.0  0.58069  0.86550  0.78926  1.0000
  H   H976      1.0  0.71067  0.69794  0.87073  1.0000
  H   H977      1.0  0.99878  0.71731  0.65997  1.0000
  H   H978      1.0  0.60511  0.89064  0.90341  1.0000
  H   H979      1.0  0.00370  0.92910  0.55035  1.0000
  H   H980      1.0  0.90711  0.90919  0.55509  1.0000
  H   H981      1.0  0.85569  0.83819  0.79599  1.0000
  H   H982      1.0  0.00704  0.75840  0.78251  1.0000
  H   H983      1.0  0.70079  0.93248  0.79341  1.0000
  H   H984      1.0  0.82297  0.85500  0.55468  1.0000
  H   H985      1.0  0.67414  0.83064  0.85755  1.0000
  H   H986      1.0  0.65298  0.84024  0.90658  1.0000
  H   H987      1.0  0.64529  0.77162  0.85635  1.0000
  H   H988      1.0  0.96823  0.93374  0.58652  1.0000
  H   H989      1.0  0.62547  0.78146  0.90607  1.0000
  C   C556      1.0  0.98693  0.94853  0.56680  1.0000
  H   H990      1.0  0.64449  0.91633  0.95652  1.0000
  H   H991      1.0  0.60414  0.92700  0.86962  1.0000
  C   C557      1.0  0.68180  0.92683  0.76806  1.0000
  H   H992      1.0  0.96700  0.87778  0.77695  1.0000
  C   C558      1.0  0.88431  0.80726  0.74997  1.0000
  C   C559      1.0  0.85593  0.90913  0.52106  1.0000
  N   N32       1.0  0.95256  0.80320  0.75287  1.0000
  C   C560      1.0  0.85001  0.80774  0.53271  1.0000
  H   H993      1.0  0.98020  0.84612  0.81482  1.0000
  H   H994      1.0  0.00406  0.79160  0.82152  1.0000
  Fe  Fe63      1.0  0.76519  0.97913  0.66417  1.0000
  C   C561      1.0  0.98833  0.79003  0.52923  1.0000
  H   H995      1.0  0.85862  0.97352  0.55853  1.0000
  S   S128      1.0  0.52717  0.80840  0.92302  1.0000
  C   C562      1.0  0.54848  0.87744  0.84275  1.0000
  H   H996      1.0  0.68936  0.68403  0.77960  1.0000
  Fe  Fe64      1.0  0.52572  0.77276  0.86716  1.0000
  C   C563      1.0  0.98754  0.00122  0.61607  1.0000
  H   H997      1.0  0.89892  0.96861  0.58745  1.0000
  C   C564      1.0  0.64603  0.88239  0.80912  1.0000
  C   C565      1.0  0.88057  0.92076  0.55704  1.0000
  H   H998      1.0  0.95166  0.72070  0.66245  1.0000
  H   H999      1.0  0.83658  0.75805  0.56144  1.0000
  H   H1000     1.0  0.96505  0.98695  0.63033  1.0000
  C   C566      1.0  0.83528  0.78665  0.56881  1.0000
  C   C567      1.0  0.71477  0.69747  0.83690  1.0000
  H   H1001     1.0  0.65607  0.70391  0.89368  1.0000
  H   H1002     1.0  0.93359  0.77582  0.53067  1.0000
  H   H1003     1.0  0.00699  0.97908  0.76837  1.0000
  C   C568      1.0  0.95327  0.78044  0.79106  1.0000
  H   H1004     1.0  0.86881  0.91229  0.58661  1.0000
  H   H1005     1.0  0.63690  0.95738  0.92977  1.0000
  H   H1006     1.0  0.91946  0.84137  0.78406  1.0000
  C   C569      1.0  0.92028  0.82628  0.75439  1.0000
  H   H1007     1.0  0.75028  0.74232  0.84120  1.0000
  C   C570      1.0  0.88477  0.96076  0.55868  1.0000
  H   H1008     1.0  0.66732  0.93292  0.86758  1.0000
  H   H1009     1.0  0.92601  0.76455  0.71376  1.0000
  H   H1010     1.0  0.80746  0.79380  0.57450  1.0000
  C   C571      1.0  0.72630  0.73437  0.82381  1.0000
  H   H1011     1.0  0.89993  0.97003  0.53157  1.0000
  H   H1012     1.0  0.99105  0.79098  0.56252  1.0000
  H   H1013     1.0  0.91353  0.85862  0.52165  1.0000
  H   H1014     1.0  0.98762  0.98614  0.69408  1.0000
  H   H1015     1.0  0.67991  0.95046  0.74813  1.0000
  C   C572      1.0  0.98995  0.76890  0.80725  1.0000
  H   H1016     1.0  0.73226  0.73476  0.79018  1.0000
  H   H1017     1.0  0.97418  0.71637  0.82701  1.0000
  H   H1018     1.0  0.97205  0.96375  0.54346  1.0000
  C   C573      1.0  0.98011  0.75378  0.70706  1.0000
  C   C574      1.0  0.97663  0.73584  0.66463  1.0000
  H   H1019     1.0  0.73691  0.67939  0.83053  1.0000
  H   H1020     1.0  0.00640  0.76622  0.70887  1.0000
  H   H1021     1.0  0.98400  0.84108  0.71954  1.0000
  H   H1022     1.0  0.97065  0.75027  0.86670  1.0000
  H   H1023     1.0  0.51690  0.91727  0.81188  1.0000
  H   H1024     1.0  0.50832  0.69942  0.00694  1.0000
  C   C575      1.0  0.51596  0.88861  0.81849  1.0000
  C   C576      1.0  0.68143  0.68552  0.81274  1.0000
