data_image0
_chemical_formula_structural       HC3H3C3H7CHCS2NH2CHCHCH2C2H4C2H2CH2CH2CH2C2H3CH4CSH2C3H3CS2H5C3HCH2CH2C3H2C2HCH3C2H3CHCH6CHFeHCH6CH5CSHCHC2H2SHNH2C2H5C3H2CHCHC2H9S2HCHCH2CHCH11C2H3CNH2CH2CHCH3C2H3C4S2H2CHC2H6SC2SNHC3HC2H3CFeHCH8C3HC2HCHCH2CFeC3FeH3C2SCH2SNH2CH2CHS3FeSCHFeS2FeSCFeSFeSHSHCH2C3HC2H2C2H2NH2C6H5CH3C2H2CH2CSCHCH3CNH3CHCHCH2C2HSHCHC3HC3H4SH3CH6CHCH3C2HSC2H2CH3CH6CH11NC6HCH12CH3NH2CSH4CH3FeHCFeSFeS3H2CFeSHFeS2H2FeSH2SFeSFeSH2CFeC3HC6HC2HC6H4CH2C2H5CHC2SH3CHNC6HCSC2H14SH2SH9CH3CH3CH3CH3SH3SCSH2C2H4FeCHCHCNFeH3FeC2H2FeH8NHCFeHFeSH6SHSFeS2FeS2FeS2FeSFeS3H5C3HC4H3C6H6C6H4S2H3NC10HCH11CH7CH6CNC4HCH2FeCSH5CH6CH2SH5C3Fe2H4CHCH2CHCH2CH4CH4SH4C2H3C2HCHCHCHFeHCH4CH3CH2CH6CHCHCHFeS2FeS2FeSFeS5FeS2CFeCH3C6H4C7H3C2HFeCHCH4FeHCNC2HC2HC3H5CH16CH3CH4CH3SCH3CNH2C2SH4CHC2H2NH3CHCH4CH2C3H4CH6CH5C2HCH2CHCH3CHCH8CHCHCH3CHCHCH2CHCH2C4H2C4HCSFeHSHFeSCHFeS2FeH2SHFeHSHSFeS2HSFeCFeHCHC6H3C4H5C6HCH2CH2NH5C2H2NHC2HSCHCH2CHSH6FeC2H2CHCH3CFeH2SCSH9CH5CH2CH2CHC2HCH4NC8HC3H12CH4NH2CH6SHCH3FeSC5HCHSH5NHFeS2HCFeSHS2CSCFeHSHS3H4CHCH2CHSCFeHC6H4C6HS2H3CFeHCH4C2H2CNC11H24SH6C2HCHCH2CH7CH2C3H2CFeHCHC4H2NH2CH5CH3CHCHCHCH8FeH4C2H4NC2HCHCSH2C2FeH2CNHCHC2H4SH3CHC2H2CH8CH6C4HCH2CH2SCHC2H2CH2CH4C2H2NC2HCNHC3H2CHSC3H7CH2CFeH4CHSH3C3H3C2H4CNHCSC2H3CHC3SH2C2HCH3CHFeHCH2CH8CH2CHC3HCH5SHCFeSH2C2HCH2C3HC2H3CHCHCH6CHS2H2C2HCNCH2FeCH3CH3CH6SH3CHCH6CHS2CH3C2H2CSNHCH2CH2C3HC2HCHCH2CH3CH8C4NCHC3HSH3C4H2CH5
_chemical_formula_sum              "H1024 C576 S128 N32 Fe64"
_cell_length_a       30.001
_cell_length_b       29.8403
_cell_length_c       37.835
_cell_angle_alpha    90.2592
_cell_angle_beta     89.924
_cell_angle_gamma    90.1981

_space_group_name_H-M_alt    "P 1"
_space_group_IT_number       1

loop_
  _space_group_symop_operation_xyz
  'x, y, z'

loop_
  _atom_site_type_symbol
  _atom_site_label
  _atom_site_symmetry_multiplicity
  _atom_site_fract_x
  _atom_site_fract_y
  _atom_site_fract_z
  _atom_site_occupancy
  H   H1        1.0  0.35358  0.08688  0.01779  1.0000
  C   C1        1.0  0.42998  0.09190  0.27974  1.0000
  C   C2        1.0  0.41508  0.08470  0.24498  1.0000
  C   C3        1.0  0.40104  0.04176  0.23401  1.0000
  H   H2        1.0  0.41514  0.11216  0.22641  1.0000
  H   H3        1.0  0.44007  0.06207  0.33065  1.0000
  H   H4        1.0  0.00653  0.00429  0.12721  1.0000
  C   C4        1.0  0.42364  0.03994  0.06740  1.0000
  C   C5        1.0  0.01685  0.00764  0.15530  1.0000
  C   C6        1.0  0.41455  0.01416  0.29306  1.0000
  H   H5        1.0  0.19691  0.02251  0.31272  1.0000
  H   H6        1.0  0.33616  0.06384  0.32787  1.0000
  H   H7        1.0  0.39205  0.43360  0.22439  1.0000
  H   H8        1.0  0.39037  0.03603  0.20706  1.0000
  H   H9        1.0  0.07524  0.02458  0.20732  1.0000
  H   H10       1.0  0.46003  0.30283  0.30065  1.0000
  H   H11       1.0  0.11111  0.03278  0.15138  1.0000
  C   C7        1.0  0.22658  0.02817  0.32984  1.0000
  H   H12       1.0  0.48706  0.26368  0.24580  1.0000
  C   C8        1.0  0.47612  0.26938  0.30158  1.0000
  S   S1        1.0  0.05183  0.03465  0.31473  1.0000
  S   S2        1.0  0.44855  0.14514  0.29319  1.0000
  N   N1        1.0  0.26453  0.99855  0.31812  1.0000
  H   H13       1.0  0.01816  0.06480  0.19226  1.0000
  H   H14       1.0  0.41100  0.03597  0.09400  1.0000
  C   C9        1.0  0.26747  0.02387  0.21669  1.0000
  H   H15       1.0  0.48487  0.27435  0.16204  1.0000
  C   C10       1.0  0.44909  0.47447  0.23713  1.0000
  H   H16       1.0  0.43631  0.11094  0.07320  1.0000
  C   C11       1.0  0.45450  0.08818  0.02097  1.0000
  H   H17       1.0  0.04632  0.07559  0.15111  1.0000
  H   H18       1.0  0.44890  0.47982  0.04858  1.0000
  C   C12       1.0  0.43815  0.08238  0.05555  1.0000
  C   C13       1.0  0.00700  0.03426  0.28477  1.0000
  H   H19       1.0  0.18784  0.02118  0.12942  1.0000
  H   H20       1.0  0.28847  0.05072  0.28327  1.0000
  H   H21       1.0  0.48162  0.35693  0.01184  1.0000
  H   H22       1.0  0.44957  0.24341  0.30083  1.0000
  C   C14       1.0  0.28021  0.01433  0.28240  1.0000
  C   C15       1.0  0.42957  0.05653  0.30369  1.0000
  H   H23       1.0  0.27434  0.06044  0.21801  1.0000
  H   H24       1.0  0.12213  0.00594  0.26138  1.0000
  C   C16       1.0  0.24710  0.00746  0.25134  1.0000
  H   H25       1.0  0.41755  0.45910  0.11087  1.0000
  H   H26       1.0  0.21586  0.02641  0.25591  1.0000
  C   C17       1.0  0.01721  0.05869  0.16336  1.0000
  H   H27       1.0  0.16112  0.01644  0.08653  1.0000
  H   H28       1.0  0.01034  0.10496  0.27340  1.0000
  C   C18       1.0  0.09605  0.00288  0.13823  1.0000
  H   H29       1.0  0.24407  0.01719  0.19453  1.0000
  H   H30       1.0  0.49220  0.03630  0.18395  1.0000
  C   C19       1.0  0.40114  0.00641  0.25814  1.0000
  C   C20       1.0  0.40395  0.46293  0.23847  1.0000
  H   H31       1.0  0.47525  0.40390  0.04145  1.0000
  H   H32       1.0  0.41765  0.44500  0.15706  1.0000
  H   H33       1.0  0.36707  0.46473  0.13693  1.0000
  C   C21       1.0  0.40392  0.46847  0.13718  1.0000
  H   H34       1.0  0.29914  0.00594  0.21118  1.0000
  H   H35       1.0  0.08146  0.01583  0.11318  1.0000
  H   H36       1.0  0.33933  0.47859  0.25975  1.0000
  H   H37       1.0  0.47975  0.33205  0.14873  1.0000
  C   C22       1.0  0.17296  0.99755  0.10993  1.0000
  S   S3        1.0  0.48591  0.43669  0.21640  1.0000
  H   H38       1.0  0.23529  0.06417  0.32618  1.0000
  H   H39       1.0  0.49237  0.01953  0.24780  1.0000
  C   C23       1.0  0.42579  0.00272  0.04481  1.0000
  C   C24       1.0  0.44247  0.00856  0.01034  1.0000
  C   C25       1.0  0.37412  0.48821  0.25876  1.0000
  H   H40       1.0  0.31199  0.99788  0.27516  1.0000
  H   H41       1.0  0.38317  0.48060  0.00851  1.0000
  H   H42       1.0  0.16259  0.05044  0.40515  1.0000
  C   C26       1.0  0.48029  0.09852  0.66947  1.0000
  S   S4        1.0  0.48486  0.18442  0.39074  1.0000
  S   S5        1.0  0.32178  0.03434  0.65044  1.0000
  H   H43       1.0  0.45456  0.48680  0.36758  1.0000
  H   H44       1.0  0.99498  0.10442  0.34885  1.0000
  H   H45       1.0  0.26539  0.49021  0.55367  1.0000
  H   H46       1.0  0.13018  0.02720  0.56651  1.0000
  H   H47       1.0  0.99671  0.06111  0.38220  1.0000
  C   C27       1.0  0.37317  0.04242  0.52480  1.0000
  C   C28       1.0  0.37204  0.05829  0.48978  1.0000
  C   C29       1.0  0.41083  0.07541  0.47331  1.0000
  H   H48       1.0  0.18351  0.08590  0.58198  1.0000
  C   C30       1.0  0.41360  0.04396  0.54316  1.0000
  H   H49       1.0  0.32250  0.39062  0.62932  1.0000
  H   H50       1.0  0.37200  0.08084  0.38421  1.0000
  C   C31       1.0  0.32137  0.04856  0.35189  1.0000
  H   H51       1.0  0.40944  0.08759  0.44646  1.0000
  H   H52       1.0  0.99686  0.34360  0.65137  1.0000
  C   C32       1.0  0.05493  0.02556  0.64151  1.0000
  C   C33       1.0  0.08139  0.07227  0.47992  1.0000
  C   C34       1.0  0.06768  0.07134  0.65682  1.0000
  H   H53       1.0  0.34098  0.05745  0.47535  1.0000
  H   H54       1.0  0.41499  0.03171  0.56997  1.0000
  C   C35       1.0  0.47225  0.44484  0.41386  1.0000
  C   C36       1.0  0.35765  0.04682  0.38020  1.0000
  H   H55       1.0  0.14500  0.05197  0.35965  1.0000
  C   C37       1.0  0.31737  0.48288  0.61378  1.0000
  H   H56       1.0  0.34359  0.03513  0.40574  1.0000
  H   H57       1.0  0.44595  0.20897  0.66133  1.0000
  H   H58       1.0  0.05743  0.06878  0.50216  1.0000
  C   C38       1.0  0.12716  0.05471  0.49070  1.0000
  C   C39       1.0  0.45127  0.07698  0.49173  1.0000
  H   H59       1.0  0.39512  0.12323  0.65043  1.0000
  H   H60       1.0  0.48998  0.02152  0.59979  1.0000
  H   H61       1.0  0.15075  0.06182  0.46886  1.0000
  C   C40       1.0  0.18611  0.05270  0.59497  1.0000
  H   H62       1.0  0.46190  0.41226  0.40191  1.0000
  C   C41       1.0  0.16474  0.01638  0.57187  1.0000
  H   H63       1.0  0.43452  0.06566  0.63176  1.0000
  H   H64       1.0  0.99930  0.49406  0.67162  1.0000
  H   H65       1.0  0.38498  0.02395  0.37209  1.0000
  H   H66       1.0  0.38591  0.44303  0.64226  1.0000
  H   H67       1.0  0.21064  0.01686  0.47043  1.0000
  H   H68       1.0  0.05199  0.09824  0.64095  1.0000
  C   C42       1.0  0.19219  0.00870  0.53752  1.0000
  H   H69       1.0  0.01814  0.02318  0.64148  1.0000
  Fe  Fe1       1.0  0.49014  0.42444  0.62194  1.0000
  H   H70       1.0  0.45020  0.16941  0.62673  1.0000
  C   C43       1.0  0.36880  0.35898  0.66423  1.0000
  H   H71       1.0  0.16871  0.05446  0.62083  1.0000
  H   H72       1.0  0.13776  0.07416  0.51430  1.0000
  H   H73       1.0  0.35261  0.32563  0.66146  1.0000
  H   H74       1.0  0.39714  0.36063  0.64532  1.0000
  H   H75       1.0  0.47525  0.10199  0.61124  1.0000
  H   H76       1.0  0.34853  0.47865  0.59806  1.0000
  C   C44       1.0  0.35685  0.44293  0.66048  1.0000
  H   H77       1.0  0.09952  0.99776  0.51922  1.0000
  H   H78       1.0  0.38330  0.47049  0.42446  1.0000
  H   H79       1.0  0.18732  0.09052  0.37556  1.0000
  H   H80       1.0  0.38785  0.44077  0.38268  1.0000
  H   H81       1.0  0.06647  0.02468  0.61359  1.0000
  C   C45       1.0  0.30325  0.00092  0.34349  1.0000
  S   S6        1.0  0.32341  0.02127  0.54463  1.0000
  H   H82       1.0  0.23755  0.02629  0.38773  1.0000
  C   C46       1.0  0.21021  0.02170  0.36839  1.0000
  H   H83       1.0  0.99391  0.11921  0.39506  1.0000
  C   C47       1.0  0.12539  0.00375  0.49863  1.0000
  C   C48       1.0  0.17408  0.05581  0.37762  1.0000
  H   H84       1.0  0.20399  0.04173  0.52749  1.0000
  H   H85       1.0  0.06842  0.05371  0.45656  1.0000
  S   S7        1.0  0.43987  0.44583  0.57973  1.0000
  H   H86       1.0  0.46025  0.44347  0.44171  1.0000
  N   N2        1.0  0.32724  0.48250  0.65290  1.0000
  H   H87       1.0  0.22184  0.04548  0.59990  1.0000
  H   H88       1.0  0.08388  0.10833  0.47307  1.0000
  C   C49       1.0  0.45228  0.06123  0.52675  1.0000
  C   C50       1.0  0.44726  0.48733  0.54658  1.0000
  H   H89       1.0  0.48333  0.06219  0.54121  1.0000
  H   H90       1.0  0.31530  0.14173  0.66500  1.0000
  H   H91       1.0  0.29631  0.45353  0.60650  1.0000
  H   H92       1.0  0.38434  0.47225  0.52165  1.0000
  H   H93       1.0  0.02262  0.36258  0.61103  1.0000
  C   C51       1.0  0.46411  0.17815  0.65315  1.0000
  C   C52       1.0  0.33504  0.39595  0.65658  1.0000
  C   C53       1.0  0.41373  0.49333  0.52102  1.0000
  H   H94       1.0  0.26293  0.45139  0.66229  1.0000
  H   H95       1.0  0.29488  0.07110  0.36188  1.0000
  C   C54       1.0  0.28379  0.47930  0.67288  1.0000
  H   H96       1.0  0.48755  0.42066  0.34558  1.0000
  C   C55       1.0  0.46958  0.07759  0.63282  1.0000
  H   H97       1.0  0.01647  0.42442  0.65392  1.0000
  C   C56       1.0  0.44525  0.48275  0.39575  1.0000
  C   C57       1.0  0.39530  0.47269  0.39673  1.0000
  H   H98       1.0  0.10439  0.07614  0.65649  1.0000
  H   H99       1.0  0.21299  0.48225  0.91604  1.0000
  H   H100      1.0  0.46323  0.02956  0.86807  1.0000
  H   H101      1.0  0.30378  0.17688  0.70276  1.0000
  H   H102      1.0  0.42680  0.42447  0.78320  1.0000
  H   H103      1.0  0.00023  0.15262  0.86357  1.0000
  H   H104      1.0  0.38821  0.09506  0.95730  1.0000
  H   H105      1.0  0.40471  0.02149  0.93665  1.0000
  H   H106      1.0  0.24710  0.07412  0.84037  1.0000
  S   S8        1.0  0.19854  0.01921  0.69313  1.0000
  S   S9        1.0  0.44410  0.18619  0.91085  1.0000
  H   H107      1.0  0.45991  0.19182  0.72002  1.0000
  C   C58       1.0  0.28185  0.07403  0.83011  1.0000
  H   H108      1.0  0.43393  0.40055  0.88431  1.0000
  C   C59       1.0  0.32599  0.15020  0.69234  1.0000
  H   H109      1.0  0.12037  0.02936  0.73663  1.0000
  H   H110      1.0  0.29532  0.10876  0.83039  1.0000
  C   C60       1.0  0.38832  0.04417  0.75069  1.0000
  H   H111      1.0  0.28178  0.07079  0.89979  1.0000
  C   C61       1.0  0.38966  0.07333  0.77984  1.0000
  H   H112      1.0  0.39430  0.34966  0.91086  1.0000
  H   H113      1.0  0.31098  0.44709  0.72115  1.0000
  H   H114      1.0  0.06235  0.48405  0.71427  1.0000
  H   H115      1.0  0.04974  0.47017  0.75953  1.0000
  H   H116      1.0  0.40035  0.06090  0.90194  1.0000
  H   H117      1.0  0.35766  0.03974  0.73601  1.0000
  H   H118      1.0  0.32217  0.12013  0.70934  1.0000
  H   H119      1.0  0.24763  0.00403  0.90584  1.0000
  H   H120      1.0  0.38594  0.32534  0.86731  1.0000
  H   H121      1.0  0.05116  0.08999  0.78754  1.0000
  H   H122      1.0  0.37467  0.46965  0.81914  1.0000
  C   C62       1.0  0.46529  0.30676  0.75947  1.0000
  C   C63       1.0  0.47374  0.31020  0.83364  1.0000
  H   H123      1.0  0.33052  0.27250  0.89196  1.0000
  H   H124      1.0  0.44230  0.45100  0.93691  1.0000
  H   H125      1.0  0.21074  0.46744  0.86975  1.0000
  C   C64       1.0  0.31108  0.04306  0.85224  1.0000
  N   N3        1.0  0.33736  0.03020  0.91703  1.0000
  H   H126      1.0  0.34209  0.02623  0.97409  1.0000
  H   H127      1.0  0.39217  0.38368  0.83341  1.0000
  C   C65       1.0  0.35860  0.39908  0.83168  1.0000
  H   H128      1.0  0.02001  0.03480  0.73799  1.0000
  H   H129      1.0  0.38182  0.36217  0.69161  1.0000
  C   C66       1.0  0.99477  0.10568  0.82133  1.0000
  H   H130      1.0  0.36307  0.47523  0.88612  1.0000
  C   C67       1.0  0.32967  0.04976  0.95347  1.0000
  H   H131      1.0  0.34423  0.04193  0.83954  1.0000
  H   H132      1.0  0.10574  0.01473  0.80020  1.0000
  H   H133      1.0  0.36000  0.09152  0.78728  1.0000
  C   C68       1.0  0.42193  0.43547  0.88281  1.0000
  C   C69       1.0  0.40620  0.13002  0.67801  1.0000
  H   H134      1.0  0.38352  0.26865  0.91398  1.0000
  H   H135      1.0  0.36544  0.43337  0.91854  1.0000
  H   H136      1.0  0.38071  0.39756  0.76055  1.0000
  C   C70       1.0  0.42890  0.07900  0.79954  1.0000
  C   C71       1.0  0.03679  0.48677  0.73545  1.0000
  C   C72       1.0  0.24264  0.46318  0.73023  1.0000
  C   C73       1.0  0.39182  0.42867  0.77426  1.0000
  S   S10       1.0  0.46151  0.30250  0.71307  1.0000
  S   S11       1.0  0.42666  0.11289  0.83777  1.0000
  H   H137      1.0  0.33454  0.09294  0.88844  1.0000
  H   H138      1.0  0.48397  0.46152  0.90371  1.0000
  C   C74       1.0  0.45681  0.05096  0.99848  1.0000
  H   H139      1.0  0.33806  0.29707  0.93553  1.0000
  C   C75       1.0  0.45492  0.27258  0.81718  1.0000
  C   C76       1.0  0.46635  0.02750  0.75958  1.0000
  H   H140      1.0  0.32796  0.44704  0.79527  1.0000
  H   H141      1.0  0.28107  0.06193  0.80231  1.0000
  H   H142      1.0  0.44380  0.24447  0.83290  1.0000
  H   H143      1.0  0.43576  0.24175  0.76795  1.0000
  H   H144      1.0  0.00408  0.07804  0.83945  1.0000
  H   H145      1.0  0.29161  0.45657  0.91906  1.0000
  S   S12       1.0  0.47076  0.42803  0.67964  1.0000
  C   C77       1.0  0.36163  0.43920  0.80577  1.0000
  C   C78       1.0  0.46710  0.15544  0.71638  1.0000
  S   S13       1.0  0.47191  0.14233  0.00711  1.0000
  N   N4        1.0  0.34027  0.40984  0.86796  1.0000
  H   H146      1.0  0.24541  0.46404  0.75951  1.0000
  C   C79       1.0  0.33011  0.36653  0.88691  1.0000
  C   C80       1.0  0.29649  0.43410  0.86323  1.0000
  C   C81       1.0  0.37109  0.43920  0.88979  1.0000
  H   H147      1.0  0.06227  0.13320  0.81975  1.0000
  C   C82       1.0  0.36965  0.33432  0.89263  1.0000
  C   C83       1.0  0.26974  0.44358  0.89768  1.0000
  H   H148      1.0  0.29344  0.05402  0.95872  1.0000
  H   H149      1.0  0.33820  0.12202  0.94247  1.0000
  H   H150      1.0  0.43055  0.44834  0.85621  1.0000
  C   C84       1.0  0.46751  0.05636  0.78914  1.0000
  Fe  Fe2       1.0  0.49299  0.16127  0.95100  1.0000
  H   H151      1.0  0.21716  0.48799  0.72221  1.0000
  C   C85       1.0  0.03680  0.11961  0.80126  1.0000
  H   H152      1.0  0.31663  0.37332  0.91380  1.0000
  H   H153      1.0  0.30361  0.34763  0.87243  1.0000
  H   H154      1.0  0.27419  0.41503  0.84496  1.0000
  H   H155      1.0  0.30208  0.46713  0.85044  1.0000
  H   H156      1.0  0.33759  0.37300  0.81855  1.0000
  H   H157      1.0  0.46933  0.49018  0.74789  1.0000
  H   H158      1.0  0.47335  0.07233  0.68962  1.0000
  H   H159      1.0  0.36005  0.14401  0.00353  1.0000
  C   C86       1.0  0.48332  0.34490  0.77589  1.0000
  C   C87       1.0  0.31562  0.06088  0.89053  1.0000
  C   C88       1.0  0.45033  0.27106  0.78030  1.0000
  H   H160      1.0  0.25336  0.41235  0.90701  1.0000
  C   C89       1.0  0.35420  0.29053  0.90958  1.0000
  C   C90       1.0  0.23313  0.47814  0.89160  1.0000
  H   H161      1.0  0.05558  0.07458  0.68447  1.0000
  C   C91       1.0  0.35150  0.09626  0.96064  1.0000
  H   H162      1.0  0.38238  0.17605  0.72032  1.0000
  C   C92       1.0  0.42665  0.02113  0.74046  1.0000
  H   H163      1.0  0.02872  0.14523  0.78106  1.0000
  H   H164      1.0  0.44554  0.13762  0.73589  1.0000
  C   C93       1.0  0.44799  0.46352  0.90966  1.0000
  Fe  Fe3       1.0  0.48138  0.14322  0.87186  1.0000
  C   C94       1.0  0.28780  0.47419  0.71361  1.0000
  C   C95       1.0  0.34199  0.11208  0.99837  1.0000
  C   C96       1.0  0.38732  0.02794  0.91117  1.0000
  Fe  Fe4       1.0  0.49382  0.23943  0.89716  1.0000
  H   H165      1.0  0.29561  0.00940  0.85111  1.0000
  H   H166      1.0  0.46982  0.05483  0.97199  1.0000
  H   H167      1.0  0.00102  0.42868  0.71783  1.0000
  C   C97       1.0  0.18917  0.00877  0.73856  1.0000
  C   C98       1.0  0.14676  0.01652  0.75314  1.0000
  S   S14       1.0  0.03618  0.00110  0.89321  1.0000
  C   C99       1.0  0.37430  0.16670  0.69264  1.0000
  H   H168      1.0  0.39086  0.45681  0.75517  1.0000
  H   H169      1.0  0.39941  0.09864  0.69293  1.0000
  S   S15       1.0  0.48188  0.31055  0.87979  1.0000
  N   N5        1.0  0.45547  0.14085  0.67909  1.0000
  H   H170      1.0  0.37160  0.44556  0.68738  1.0000
  H   H171      1.0  0.23135  0.42924  0.72194  1.0000
  C   C100      1.0  0.48697  0.34687  0.81298  1.0000
  H   H172      1.0  0.37597  0.19738  0.67624  1.0000
  H   H173      1.0  0.30574  0.11779  0.00220  1.0000
  C   C101      1.0  0.13836  0.00817  0.78914  1.0000
  H   H174      1.0  0.30692  0.39161  0.67531  1.0000
  S   S16       1.0  0.03352  0.71162  0.18287  1.0000
  S   S17       1.0  0.01745  0.62488  0.13073  1.0000
  S   S18       1.0  0.33043  0.95738  0.14594  1.0000
  Fe  Fe5       1.0  0.05633  0.68984  0.12963  1.0000
  S   S19       1.0  0.13066  0.69427  0.12000  1.0000
  C   C102      1.0  0.07152  0.98860  0.20024  1.0000
  H   H175      1.0  0.30465  0.75312  0.20093  1.0000
  Fe  Fe6       1.0  0.29508  0.89052  0.14604  1.0000
  S   S20       1.0  0.34244  0.85772  0.10812  1.0000
  S   S21       1.0  0.21983  0.88484  0.14554  1.0000
  Fe  Fe7       1.0  0.37069  0.92910  0.19080  1.0000
  S   S22       1.0  0.42408  0.89962  0.15621  1.0000
  C   C103      1.0  0.43447  0.53653  0.27774  1.0000
  Fe  Fe8       1.0  0.38104  0.92307  0.11091  1.0000
  S   S23       1.0  0.40898  0.94814  0.05817  1.0000
  Fe  Fe9       1.0  0.38114  0.83786  0.15643  1.0000
  S   S24       1.0  0.40502  0.76782  0.16911  1.0000
  H   H176      1.0  0.41384  0.98713  0.31193  1.0000
  S   S25       1.0  0.33067  0.86583  0.19368  1.0000
  H   H177      1.0  0.41317  0.59836  0.18350  1.0000
  C   C104      1.0  0.43723  0.75304  0.28689  1.0000
  H   H178      1.0  0.29825  0.73645  0.03563  1.0000
  H   H179      1.0  0.00854  0.82811  0.02552  1.0000
  C   C105      1.0  0.41744  0.76236  0.21448  1.0000
  C   C106      1.0  0.42487  0.80031  0.23556  1.0000
  C   C107      1.0  0.43573  0.79562  0.27146  1.0000
  H   H180      1.0  0.47137  0.94127  0.27432  1.0000
  C   C108      1.0  0.13463  0.97128  0.12668  1.0000
  C   C109      1.0  0.37903  0.65306  0.03517  1.0000
  H   H181      1.0  0.44166  0.82509  0.28753  1.0000
  H   H182      1.0  0.15031  0.95263  0.26184  1.0000
  C   C110      1.0  0.38924  0.52445  0.27907  1.0000
  C   C111      1.0  0.16238  0.65747  0.21674  1.0000
  H   H183      1.0  0.45392  0.51769  0.14855  1.0000
  H   H184      1.0  0.24633  0.85841  0.32353  1.0000
  N   N6        1.0  0.40894  0.59887  0.12621  1.0000
  H   H185      1.0  0.38753  0.66298  0.10554  1.0000
  H   H186      1.0  0.18011  0.69939  0.05718  1.0000
  C   C112      1.0  0.15535  0.74682  0.12911  1.0000
  C   C113      1.0  0.12915  0.78468  0.13534  1.0000
  C   C114      1.0  0.14954  0.82661  0.14083  1.0000
  C   C115      1.0  0.19603  0.83115  0.13997  1.0000
  C   C116      1.0  0.22232  0.79311  0.13464  1.0000
  C   C117      1.0  0.20197  0.75105  0.12939  1.0000
  H   H187      1.0  0.09319  0.78179  0.13558  1.0000
  H   H188      1.0  0.12933  0.85572  0.14575  1.0000
  H   H189      1.0  0.25828  0.79614  0.13452  1.0000
  H   H190      1.0  0.22246  0.72171  0.12575  1.0000
  H   H191      1.0  0.09720  0.84447  0.21114  1.0000
  C   C118      1.0  0.18942  0.77235  0.01540  1.0000
  H   H192      1.0  0.10237  0.61902  0.22953  1.0000
  H   H193      1.0  0.42900  0.68221  0.27799  1.0000
  H   H194      1.0  0.27388  0.66570  0.09214  1.0000
  C   C119      1.0  0.21306  0.70347  0.04434  1.0000
  C   C120      1.0  0.11977  0.97024  0.25309  1.0000
  H   H195      1.0  0.11411  0.69770  0.24569  1.0000
  H   H196      1.0  0.31075  0.91242  0.31840  1.0000
  C   C121      1.0  0.23405  0.65621  0.04443  1.0000
  H   H197      1.0  0.43833  0.62558  0.05751  1.0000
  H   H198      1.0  0.23855  0.97156  0.24762  1.0000
  C   C122      1.0  0.24812  0.95074  0.31664  1.0000
  S   S26       1.0  0.38503  0.95180  0.24642  1.0000
  C   C123      1.0  0.24800  0.64246  0.08168  1.0000
  H   H199      1.0  0.09119  0.82401  0.04445  1.0000
  C   C124      1.0  0.11526  0.96654  0.21299  1.0000
  H   H200      1.0  0.10511  0.63857  0.18439  1.0000
  H   H201      1.0  0.17526  0.65695  0.29418  1.0000
  H   H202      1.0  0.08621  0.77008  0.23801  1.0000
  C   C125      1.0  0.09741  0.84088  0.24035  1.0000
  N   N7        1.0  0.20800  0.72587  0.00897  1.0000
  H   H203      1.0  0.09057  0.95459  0.26627  1.0000
  H   H204      1.0  0.19936  0.97390  0.10119  1.0000
  H   H205      1.0  0.34241  0.64801  0.03570  1.0000
  C   C126      1.0  0.39191  0.61255  0.16220  1.0000
  H   H206      1.0  0.46239  0.67506  0.10347  1.0000
  C   C127      1.0  0.03299  0.92335  0.11662  1.0000
  H   H207      1.0  0.99659  0.92940  0.11642  1.0000
  C   C128      1.0  0.40190  0.62020  0.06007  1.0000
  H   H208      1.0  0.42228  0.83336  0.22417  1.0000
  H   H209      1.0  0.13926  0.59245  0.19821  1.0000
  C   C129      1.0  0.28952  0.75569  0.01160  1.0000
  C   C130      1.0  0.38554  0.62664  0.09870  1.0000
  H   H210      1.0  0.08216  0.91409  0.15783  1.0000
  S   S27       1.0  0.00360  0.72868  0.10095  1.0000
  H   H211      1.0  0.99526  0.96396  0.29074  1.0000
  C   C131      1.0  0.41948  0.71976  0.22990  1.0000
  H   H212      1.0  0.23240  0.72543  0.06255  1.0000
  C   C132      1.0  0.42844  0.71513  0.26614  1.0000
  C   C133      1.0  0.46437  0.51180  0.25638  1.0000
  C   C134      1.0  0.39988  0.55000  0.11874  1.0000
  H   H213      1.0  0.34932  0.61872  0.09847  1.0000
  C   C135      1.0  0.34267  0.60039  0.17053  1.0000
  C   C136      1.0  0.45866  0.60651  0.12526  1.0000
  C   C137      1.0  0.33035  0.61469  0.20814  1.0000
  H   H214      1.0  0.44641  0.56434  0.29352  1.0000
  H   H215      1.0  0.36360  0.54400  0.11464  1.0000
  H   H216      1.0  0.13517  0.75575  0.05302  1.0000
  H   H217      1.0  0.46193  0.67316  0.15093  1.0000
  S   S28       1.0  0.34993  0.55269  0.30569  1.0000
  H   H218      1.0  0.31971  0.61772  0.15219  1.0000
  H   H219      1.0  0.33657  0.56381  0.16851  1.0000
  H   H220      1.0  0.02954  0.85151  0.12743  1.0000
  C   C138      1.0  0.04091  0.87450  0.10623  1.0000
  H   H221      1.0  0.32783  0.77908  0.23994  1.0000
  H   H222      1.0  0.33468  0.65141  0.21151  1.0000
  H   H223      1.0  0.29499  0.60601  0.21363  1.0000
  H   H224      1.0  0.35153  0.59711  0.22776  1.0000
  H   H225      1.0  0.40335  0.52375  0.17348  1.0000
  H   H226      1.0  0.41586  0.53991  0.09340  1.0000
  C   C139      1.0  0.05163  0.93408  0.15401  1.0000
  H   H227      1.0  0.26197  0.60805  0.08101  1.0000
  C   C140      1.0  0.48084  0.53613  0.02383  1.0000
  H   H228      1.0  0.31390  0.72056  0.24071  1.0000
  H   H229      1.0  0.26393  0.65419  0.02736  1.0000
  H   H230      1.0  0.07682  0.86890  0.10096  1.0000
  C   C141      1.0  0.44676  0.50445  0.02782  1.0000
  C   C142      1.0  0.28122  0.91596  0.30100  1.0000
  H   H231      1.0  0.23074  0.67859  0.28614  1.0000
  S   S29       1.0  0.07969  0.90706  0.33399  1.0000
  C   C143      1.0  0.11046  0.79326  0.25063  1.0000
  C   C144      1.0  0.25938  0.86983  0.29761  1.0000
  H   H232      1.0  0.38699  0.68819  0.04278  1.0000
  H   H233      1.0  0.10682  0.79063  0.27975  1.0000
  C   C145      1.0  0.12489  0.62502  0.20667  1.0000
  H   H234      1.0  0.49177  0.64995  0.20987  1.0000
  H   H235      1.0  0.21872  0.64259  0.09973  1.0000
  H   H236      1.0  0.04792  0.94500  0.09596  1.0000
  C   C146      1.0  0.41708  0.51650  0.14685  1.0000
  H   H237      1.0  0.29296  0.92549  0.27429  1.0000
  H   H238      1.0  0.02745  0.91999  0.17352  1.0000
  H   H239      1.0  0.47370  0.59063  0.10141  1.0000
  H   H240      1.0  0.14841  0.95203  0.14894  1.0000
  H   H241      1.0  0.04752  0.68558  0.01178  1.0000
  H   H242      1.0  0.04356  0.97567  0.21686  1.0000
  C   C147      1.0  0.14021  0.77480  0.02829  1.0000
  H   H243      1.0  0.48831  0.82803  0.18196  1.0000
  H   H244      1.0  0.39447  0.64952  0.16536  1.0000
  H   H245      1.0  0.11669  0.93050  0.20609  1.0000
  H   H246      1.0  0.47476  0.58937  0.14788  1.0000
  H   H247      1.0  0.39391  0.58589  0.05058  1.0000
  H   H248      1.0  0.06351  0.84821  0.25042  1.0000
  H   H249      1.0  0.14220  0.72935  0.29637  1.0000
  H   H250      1.0  0.33204  0.98171  0.33277  1.0000
  H   H251      1.0  0.23163  0.87087  0.27824  1.0000
  H   H252      1.0  0.28457  0.84532  0.28822  1.0000
  H   H253      1.0  0.18247  0.64150  0.23760  1.0000
  N   N8        1.0  0.17566  0.73620  0.24593  1.0000
  C   C148      1.0  0.22139  0.73253  0.22940  1.0000
  C   C149      1.0  0.14363  0.70369  0.22839  1.0000
  C   C150      1.0  0.15910  0.78313  0.23899  1.0000
  C   C151      1.0  0.17664  0.72940  0.28545  1.0000
  C   C152      1.0  0.19825  0.68558  0.29885  1.0000
  C   C153      1.0  0.25710  0.76574  0.24358  1.0000
  H   H254      1.0  0.41323  0.69033  0.21409  1.0000
  C   C154      1.0  0.30358  0.75365  0.23029  1.0000
  H   H255      1.0  0.02233  0.86640  0.08177  1.0000
  H   H256      1.0  0.21895  0.73779  0.20037  1.0000
  H   H257      1.0  0.23522  0.69835  0.23205  1.0000
  H   H258      1.0  0.13002  0.71845  0.20362  1.0000
  H   H259      1.0  0.16184  0.79086  0.21026  1.0000
  H   H260      1.0  0.18029  0.80833  0.25280  1.0000
  H   H261      1.0  0.19319  0.75833  0.29879  1.0000
  H   H262      1.0  0.12083  0.86565  0.25214  1.0000
  H   H263      1.0  0.24996  0.80025  0.23432  1.0000
  H   H264      1.0  0.25846  0.76571  0.27284  1.0000
  H   H265      1.0  0.18400  0.66174  0.19308  1.0000
  H   H266      1.0  0.12284  0.94659  0.10675  1.0000
  C   C155      1.0  0.47432  0.65611  0.12675  1.0000
  H   H267      1.0  0.20898  0.63128  0.03531  1.0000
  H   H268      1.0  0.47043  0.61814  0.24673  1.0000
  H   H269      1.0  0.01351  0.63597  0.01546  1.0000
  N   N9        1.0  0.06011  0.98306  0.16158  1.0000
  H   H270      1.0  0.44605  0.92161  0.33721  1.0000
  H   H271      1.0  0.14743  0.83799  0.05705  1.0000
  C   C156      1.0  0.12650  0.82323  0.03571  1.0000
  S   S30       1.0  0.45178  0.74763  0.33172  1.0000
  H   H272      1.0  0.27940  0.78998  0.01956  1.0000
  H   H273      1.0  0.20956  0.79060  0.03558  1.0000
  H   H274      1.0  0.48333  0.88690  0.23122  1.0000
  H   H275      1.0  0.21614  0.94832  0.30190  1.0000
  C   C157      1.0  0.20706  0.68804  0.33854  1.0000
  H   H276      1.0  0.14447  0.98406  0.20139  1.0000
  H   H277      1.0  0.12974  0.84388  0.01146  1.0000
  H   H278      1.0  0.11700  0.76130  0.00801  1.0000
  Fe  Fe10      1.0  0.03205  0.59777  0.60439  1.0000
  H   H279      1.0  0.08708  0.69983  0.34636  1.0000
  C   C158      1.0  0.16015  0.93561  0.52155  1.0000
  Fe  Fe11      1.0  0.12011  0.60516  0.64473  1.0000
  S   S31       1.0  0.25611  0.95695  0.61668  1.0000
  Fe  Fe12      1.0  0.07097  0.68933  0.62451  1.0000
  S   S32       1.0  0.08778  0.76137  0.61000  1.0000
  S   S33       1.0  0.05762  0.56612  0.65455  1.0000
  S   S34       1.0  0.09773  0.63183  0.59244  1.0000
  H   H280      1.0  0.11351  0.99158  0.65777  1.0000
  H   H281      1.0  0.04815  0.89957  0.54804  1.0000
  C   C159      1.0  0.39490  0.53560  0.64411  1.0000
  Fe  Fe13      1.0  0.11425  0.90620  0.38662  1.0000
  S   S35       1.0  0.18775  0.88960  0.39191  1.0000
  H   H282      1.0  0.02559  0.73878  0.40383  1.0000
  Fe  Fe14      1.0  0.32945  0.67025  0.39978  1.0000
  S   S36       1.0  0.39720  0.69403  0.41723  1.0000
  S   S37       1.0  0.26351  0.69440  0.42305  1.0000
  H   H283      1.0  0.00846  0.71079  0.51912  1.0000
  H   H284      1.0  0.13259  0.84461  0.59460  1.0000
  Fe  Fe15      1.0  0.41628  0.62083  0.41779  1.0000
  S   S38       1.0  0.46427  0.59444  0.45981  1.0000
  H   H285      1.0  0.30622  0.77694  0.39908  1.0000
  H   H286      1.0  0.00336  0.87712  0.61916  1.0000
  S   S39       1.0  0.34728  0.59691  0.40406  1.0000
  Fe  Fe16      1.0  0.03282  0.94396  0.42611  1.0000
  S   S40       1.0  0.36309  0.93765  0.62158  1.0000
  Fe  Fe17      1.0  0.29980  0.90558  0.64155  1.0000
  S   S41       1.0  0.28434  0.83110  0.64257  1.0000
  H   H287      1.0  0.26057  0.95956  0.50340  1.0000
  H   H288      1.0  0.32858  0.55414  0.66272  1.0000
  C   C160      1.0  0.27265  0.96030  0.44766  1.0000
  Fe  Fe18      1.0  0.41446  0.69200  0.35934  1.0000
  C   C161      1.0  0.45596  0.55354  0.49326  1.0000
  C   C162      1.0  0.48520  0.51463  0.54529  1.0000
  C   C163      1.0  0.24142  0.95253  0.47898  1.0000
  H   H289      1.0  0.39223  0.53008  0.47480  1.0000
  C   C164      1.0  0.20784  0.83487  0.40024  1.0000
  C   C165      1.0  0.25361  0.82625  0.39627  1.0000
  C   C166      1.0  0.27096  0.78321  0.40250  1.0000
  C   C167      1.0  0.24282  0.74863  0.41372  1.0000
  C   C168      1.0  0.19712  0.75736  0.41815  1.0000
  C   C169      1.0  0.17956  0.80016  0.41111  1.0000
  H   H290      1.0  0.36963  0.63665  0.51395  1.0000
  C   C170      1.0  0.03123  0.71602  0.38104  1.0000
  C   C171      1.0  0.48938  0.54757  0.51885  1.0000
  H   H291      1.0  0.14428  0.80636  0.41436  1.0000
  C   C172      1.0  0.14208  0.78104  0.62022  1.0000
  C   C173      1.0  0.15534  0.82403  0.60939  1.0000
  C   C174      1.0  0.19833  0.84036  0.61703  1.0000
  C   C175      1.0  0.22876  0.81357  0.63522  1.0000
  C   C176      1.0  0.21562  0.77059  0.64589  1.0000
  C   C177      1.0  0.17249  0.75443  0.63858  1.0000
  H   H292      1.0  0.39235  0.60784  0.65260  1.0000
  H   H293      1.0  0.22327  0.99159  0.54584  1.0000
  H   H294      1.0  0.09356  0.87339  0.65612  1.0000
  H   H295      1.0  0.16332  0.72093  0.64643  1.0000
  C   C178      1.0  0.48161  0.92499  0.34496  1.0000
  H   H296      1.0  0.07838  0.94436  0.59879  1.0000
  H   H297      1.0  0.34332  0.64707  0.47184  1.0000
  C   C179      1.0  0.08000  0.72093  0.36996  1.0000
  C   C180      1.0  0.41804  0.52615  0.49445  1.0000
  H   H298      1.0  0.04479  0.65377  0.40915  1.0000
  H   H299      1.0  0.19136  0.92014  0.53164  1.0000
  H   H300      1.0  0.38909  0.53903  0.61531  1.0000
  H   H301      1.0  0.13724  0.93644  0.54470  1.0000
  H   H302      1.0  0.31089  0.65471  0.65070  1.0000
  C   C181      1.0  0.33992  0.62930  0.49737  1.0000
  H   H303      1.0  0.23922  0.74941  0.65932  1.0000
  C   C182      1.0  0.29106  0.68616  0.60150  1.0000
  C   C183      1.0  0.04970  0.93472  0.61594  1.0000
  S   S42       1.0  0.19086  0.58524  0.65598  1.0000
  H   H304      1.0  0.45054  0.51529  0.40940  1.0000
  H   H305      1.0  0.00937  0.57393  0.37420  1.0000
  H   H306      1.0  0.11614  0.85318  0.53217  1.0000
  C   C184      1.0  0.13672  0.85531  0.50784  1.0000
  H   H307      1.0  0.23213  0.91652  0.47880  1.0000
  N   N10       1.0  0.25714  0.71335  0.54230  1.0000
  C   C185      1.0  0.21587  0.70803  0.51986  1.0000
  C   C186      1.0  0.29652  0.69525  0.52197  1.0000
  C   C187      1.0  0.25018  0.68827  0.57641  1.0000
  C   C188      1.0  0.26599  0.76195  0.55094  1.0000
  C   C189      1.0  0.26901  0.79414  0.51892  1.0000
  C   C190      1.0  0.17258  0.72909  0.53516  1.0000
  H   H308      1.0  0.17086  0.84309  0.51347  1.0000
  C   C191      1.0  0.29719  0.64376  0.51608  1.0000
  S   S43       1.0  0.01469  0.96174  0.48300  1.0000
  C   C192      1.0  0.27766  0.84225  0.53124  1.0000
  C   C193      1.0  0.13367  0.72418  0.50942  1.0000
  H   H309      1.0  0.29484  0.98400  0.36880  1.0000
  H   H310      1.0  0.20843  0.67189  0.51544  1.0000
  H   H311      1.0  0.22153  0.72171  0.49289  1.0000
  H   H312      1.0  0.29803  0.71049  0.49519  1.0000
  H   H313      1.0  0.32842  0.70533  0.53480  1.0000
  H   H314      1.0  0.23798  0.65357  0.57114  1.0000
  H   H315      1.0  0.22305  0.70391  0.59207  1.0000
  H   H316      1.0  0.24035  0.77505  0.56943  1.0000
  H   H317      1.0  0.29800  0.76558  0.56552  1.0000
  H   H318      1.0  0.23771  0.79408  0.50336  1.0000
  H   H319      1.0  0.29679  0.78448  0.50109  1.0000
  H   H320      1.0  0.16265  0.71223  0.56004  1.0000
  H   H321      1.0  0.17678  0.76535  0.54067  1.0000
  H   H322      1.0  0.29926  0.72003  0.61193  1.0000
  S   S44       1.0  0.00263  0.65798  0.63242  1.0000
  H   H323      1.0  0.29581  0.62530  0.54137  1.0000
  H   H324      1.0  0.26864  0.63307  0.49939  1.0000
  S   S45       1.0  0.99931  0.54630  0.56766  1.0000
  H   H325      1.0  0.20825  0.87318  0.60803  1.0000
  H   H326      1.0  0.28193  0.86427  0.50791  1.0000
  H   H327      1.0  0.24925  0.85474  0.54730  1.0000
  H   H328      1.0  0.30859  0.84424  0.54733  1.0000
  H   H329      1.0  0.10301  0.73813  0.52172  1.0000
  H   H330      1.0  0.14056  0.74294  0.48473  1.0000
  H   H331      1.0  0.12756  0.68831  0.50301  1.0000
  H   H332      1.0  0.32094  0.67263  0.58798  1.0000
  H   H333      1.0  0.25255  0.66880  0.64849  1.0000
  C   C194      1.0  0.07707  0.98707  0.66264  1.0000
  H   H334      1.0  0.48737  0.90331  0.36829  1.0000
  H   H335      1.0  0.17517  0.73066  0.42658  1.0000
  H   H336      1.0  0.05911  0.86200  0.60687  1.0000
  C   C195      1.0  0.13828  0.90339  0.49418  1.0000
  H   H337      1.0  0.18055  0.97133  0.45236  1.0000
  H   H338      1.0  0.27376  0.62141  0.62406  1.0000
  H   H339      1.0  0.10244  0.71111  0.39190  1.0000
  C   C196      1.0  0.28469  0.52107  0.55995  1.0000
  H   H340      1.0  0.48868  0.96031  0.35267  1.0000
  H   H341      1.0  0.12159  0.83314  0.48743  1.0000
  H   H342      1.0  0.08698  0.75647  0.36314  1.0000
  C   C197      1.0  0.28140  0.65598  0.63311  1.0000
  H   H343      1.0  0.15658  0.90291  0.46875  1.0000
  H   H344      1.0  0.31298  0.55568  0.60415  1.0000
  H   H345      1.0  0.22090  0.65570  0.34788  1.0000
  S   S46       1.0  0.43969  0.62142  0.36108  1.0000
  H   H346      1.0  0.27581  0.85292  0.38810  1.0000
  H   H347      1.0  0.10349  0.91381  0.48875  1.0000
  H   H348      1.0  0.33880  0.59271  0.49200  1.0000
  S   S47       1.0  0.05760  0.87385  0.41543  1.0000
  C   C198      1.0  0.03306  0.88777  0.60381  1.0000
  S   S48       1.0  0.34535  0.67387  0.34187  1.0000
  H   H349      1.0  0.12936  0.91714  0.64109  1.0000
  H   H350      1.0  0.01028  0.85379  0.55623  1.0000
  C   C199      1.0  0.10245  0.90917  0.66049  1.0000
  C   C200      1.0  0.01991  0.88815  0.56477  1.0000
  H   H351      1.0  0.02260  0.95831  0.60904  1.0000
  H   H352      1.0  0.30219  0.93817  0.45004  1.0000
  H   H353      1.0  0.37691  0.49998  0.38327  1.0000
  H   H354      1.0  0.42890  0.89156  0.66852  1.0000
  Fe  Fe19      1.0  0.02099  0.87961  0.36374  1.0000
  C   C201      1.0  0.35115  0.52467  0.66436  1.0000
  H   H355      1.0  0.03091  0.69541  0.45777  1.0000
  C   C202      1.0  0.01971  0.66664  0.39010  1.0000
  H   H356      1.0  0.25545  0.95225  0.42245  1.0000
  C   C203      1.0  0.99744  0.68393  0.46641  1.0000
  N   N11       1.0  0.06277  0.93929  0.65435  1.0000
  Fe  Fe20      1.0  0.36948  0.60315  0.34741  1.0000
  H   H357      1.0  0.02551  0.64712  0.36537  1.0000
  H   H358      1.0  0.26512  0.55032  0.55085  1.0000
  H   H359      1.0  0.44703  0.58608  0.64289  1.0000
  Fe  Fe21      1.0  0.36183  0.97727  0.67246  1.0000
  C   C204      1.0  0.29293  0.52492  0.59971  1.0000
  C   C205      1.0  0.41543  0.57949  0.65735  1.0000
  H   H360      1.0  0.11155  0.98721  0.47468  1.0000
  H   H361      1.0  0.99392  0.60055  0.43350  1.0000
  Fe  Fe22      1.0  0.26242  0.99368  0.66838  1.0000
  H   H362      1.0  0.16317  0.98491  0.58741  1.0000
  H   H363      1.0  0.17592  0.69503  0.35341  1.0000
  H   H364      1.0  0.23193  0.71473  0.34433  1.0000
  H   H365      1.0  0.42002  0.50892  0.64809  1.0000
  H   H366      1.0  0.31685  0.52042  0.54534  1.0000
  H   H367      1.0  0.00024  0.64920  0.47647  1.0000
  H   H368      1.0  0.26007  0.52909  0.61275  1.0000
  H   H369      1.0  0.19580  0.98772  0.37189  1.0000
  N   N12       1.0  0.16915  0.98249  0.50858  1.0000
  H   H370      1.0  0.01052  0.72756  0.35860  1.0000
  C   C206      1.0  0.19913  0.98221  0.47642  1.0000
  Fe  Fe23      1.0  0.31951  0.99262  0.60061  1.0000
  H   H371      1.0  0.26345  0.50991  0.66862  1.0000
  Fe  Fe24      1.0  0.05251  0.97396  0.35057  1.0000
  S   S49       1.0  0.09242  0.97604  0.40069  1.0000
  H   H372      1.0  0.47909  0.86092  0.65893  1.0000
  H   H373      1.0  0.24001  0.93883  0.34366  1.0000
  H   H374      1.0  0.28443  0.99563  0.44729  1.0000
  H   H375      1.0  0.03044  0.79911  0.67343  1.0000
  H   H376      1.0  0.19199  0.90085  0.68158  1.0000
  H   H377      1.0  0.25313  0.92434  0.88790  1.0000
  S   S50       1.0  0.30277  0.94016  0.69415  1.0000
  H   H378      1.0  0.21484  0.63798  0.97801  1.0000
  S   S51       1.0  0.06129  0.91199  0.84397  1.0000
  Fe  Fe25      1.0  0.05981  0.87217  0.89422  1.0000
  S   S52       1.0  0.07730  0.79789  0.89320  1.0000
  S   S53       1.0  0.09895  0.92193  0.92597  1.0000
  Fe  Fe26      1.0  0.27738  0.58950  0.84371  1.0000
  S   S54       1.0  0.30380  0.65471  0.82365  1.0000
  S   S55       1.0  0.21652  0.55755  0.82003  1.0000
  Fe  Fe27      1.0  0.34388  0.58442  0.90468  1.0000
  S   S56       1.0  0.37539  0.65030  0.88975  1.0000
  S   S57       1.0  0.35794  0.53708  0.95067  1.0000
  Fe  Fe28      1.0  0.30527  0.67488  0.88061  1.0000
  S   S58       1.0  0.28265  0.74485  0.89545  1.0000
  Fe  Fe29      1.0  0.37093  0.62435  0.83377  1.0000
  S   S59       1.0  0.42532  0.63939  0.79434  1.0000
  S   S60       1.0  0.27403  0.61148  0.90033  1.0000
  S   S61       1.0  0.34428  0.55697  0.84898  1.0000
  H   H379      1.0  0.26643  0.69891  0.98197  1.0000
  H   H380      1.0  0.24173  0.97396  0.81327  1.0000
  H   H381      1.0  0.01421  0.98952  0.79263  1.0000
  H   H382      1.0  0.18082  0.88747  0.72699  1.0000
  H   H383      1.0  0.10433  0.78218  0.69844  1.0000
  C   C207      1.0  0.15636  0.63438  0.94574  1.0000
  C   C208      1.0  0.43239  0.79687  0.77717  1.0000
  C   C209      1.0  0.46142  0.59914  0.77568  1.0000
  H   H384      1.0  0.35241  0.72146  0.67938  1.0000
  C   C210      1.0  0.07237  0.52748  0.91112  1.0000
  C   C211      1.0  0.33190  0.76026  0.98940  1.0000
  C   C212      1.0  0.36666  0.70335  0.70233  1.0000
  C   C213      1.0  0.42247  0.76728  0.80997  1.0000
  H   H385      1.0  0.26831  0.69481  0.74553  1.0000
  H   H386      1.0  0.33382  0.96258  0.93703  1.0000
  H   H387      1.0  0.43787  0.59367  0.95348  1.0000
  C   C214      1.0  0.13448  0.78353  0.89443  1.0000
  C   C215      1.0  0.14722  0.73924  0.88716  1.0000
  C   C216      1.0  0.19257  0.72722  0.88600  1.0000
  C   C217      1.0  0.22549  0.75907  0.89385  1.0000
  C   C218      1.0  0.21269  0.80311  0.90196  1.0000
  C   C219      1.0  0.16746  0.81540  0.90196  1.0000
  H   H388      1.0  0.12190  0.71439  0.88177  1.0000
  H   H389      1.0  0.20201  0.69320  0.87947  1.0000
  H   H390      1.0  0.23789  0.82797  0.90807  1.0000
  H   H391      1.0  0.15828  0.84963  0.90762  1.0000
  H   H392      1.0  0.10251  0.54847  0.91557  1.0000
  H   H393      1.0  0.39981  0.95748  0.89731  1.0000
  C   C220      1.0  0.19778  0.58092  0.70188  1.0000
  C   C221      1.0  0.23990  0.58728  0.71715  1.0000
  C   C222      1.0  0.24570  0.58168  0.75373  1.0000
  C   C223      1.0  0.20958  0.56863  0.77485  1.0000
  C   C224      1.0  0.16751  0.56271  0.75955  1.0000
  C   C225      1.0  0.16145  0.56961  0.72327  1.0000
  H   H394      1.0  0.26801  0.59633  0.70073  1.0000
  H   H395      1.0  0.27833  0.58606  0.76538  1.0000
  H   H396      1.0  0.13957  0.55235  0.77570  1.0000
  H   H397      1.0  0.12887  0.56463  0.71169  1.0000
  S   S62       1.0  0.16504  0.98760  0.85708  1.0000
  S   S63       1.0  0.42615  0.98539  0.70323  1.0000
  H   H398      1.0  0.25826  0.98928  0.95117  1.0000
  H   H399      1.0  0.03037  0.69212  0.94870  1.0000
  H   H400      1.0  0.48959  0.77058  0.83201  1.0000
  N   N13       1.0  0.12424  0.75504  0.76843  1.0000
  C   C226      1.0  0.08035  0.75323  0.74877  1.0000
  C   C227      1.0  0.12028  0.72411  0.79976  1.0000
  C   C228      1.0  0.13025  0.80247  0.78179  1.0000
  C   C229      1.0  0.16157  0.74189  0.74354  1.0000
  C   C230      1.0  0.20313  0.71917  0.76020  1.0000
  C   C231      1.0  0.07562  0.78537  0.71681  1.0000
  C   C232      1.0  0.17355  0.81293  0.80242  1.0000
  C   C233      1.0  0.10545  0.67532  0.79109  1.0000
  C   C234      1.0  0.11544  0.64333  0.82147  1.0000
  C   C235      1.0  0.24033  0.71313  0.73308  1.0000
  H   H401      1.0  0.99472  0.56751  0.79715  1.0000
  C   C236      1.0  0.17171  0.85983  0.81887  1.0000
  H   H402      1.0  0.05212  0.76015  0.76722  1.0000
  H   H403      1.0  0.07422  0.71894  0.73817  1.0000
  H   H404      1.0  0.15201  0.72247  0.81457  1.0000
  H   H405      1.0  0.09587  0.73779  0.81921  1.0000
  H   H406      1.0  0.10131  0.81203  0.79881  1.0000
  H   H407      1.0  0.13069  0.82655  0.75955  1.0000
  H   H408      1.0  0.14932  0.71783  0.72321  1.0000
  H   H409      1.0  0.17312  0.77160  0.72826  1.0000
  H   H410      1.0  0.19457  0.68525  0.77008  1.0000
  H   H411      1.0  0.21684  0.73856  0.78269  1.0000
  H   H412      1.0  0.07314  0.82062  0.72590  1.0000
  C   C237      1.0  0.12313  0.91123  0.69813  1.0000
  H   H413      1.0  0.20251  0.81219  0.78414  1.0000
  H   H414      1.0  0.17920  0.78893  0.82410  1.0000
  H   H415      1.0  0.06892  0.67441  0.78661  1.0000
  H   H416      1.0  0.12186  0.66235  0.76682  1.0000
  H   H417      1.0  0.15190  0.64177  0.82648  1.0000
  H   H418      1.0  0.09794  0.65417  0.84586  1.0000
  H   H419      1.0  0.10358  0.60915  0.81445  1.0000
  C   C238      1.0  0.21508  0.98552  0.79649  1.0000
  H   H420      1.0  0.03545  0.93086  0.70689  1.0000
  H   H421      1.0  0.40794  0.71509  0.74739  1.0000
  H   H422      1.0  0.26566  0.90878  0.93314  1.0000
  H   H423      1.0  0.16812  0.88591  0.79821  1.0000
  H   H424      1.0  0.14337  0.86226  0.83760  1.0000
  H   H425      1.0  0.20257  0.86670  0.83411  1.0000
  C   C239      1.0  0.40587  0.53733  0.97821  1.0000
  N   N14       1.0  0.39199  0.81282  0.75708  1.0000
  C   C240      1.0  0.03023  0.55312  0.92138  1.0000
  C   C241      1.0  0.40641  0.84790  0.73066  1.0000
  C   C242      1.0  0.36136  0.83530  0.78350  1.0000
  C   C243      1.0  0.36679  0.77509  0.73906  1.0000
  H   H426      1.0  0.34169  0.76009  0.75731  1.0000
  C   C244      1.0  0.32091  0.86060  0.76790  1.0000
  H   H427      1.0  0.32545  0.78101  0.96563  1.0000
  H   H428      1.0  0.43794  0.49928  0.90823  1.0000
  Fe  Fe30      1.0  0.03198  0.62771  0.68168  1.0000
  C   C245      1.0  0.44013  0.56874  0.97406  1.0000
  S   S64       1.0  0.09695  0.66408  0.67581  1.0000
  H   H429      1.0  0.39751  0.74084  0.80386  1.0000
  H   H430      1.0  0.37721  0.86119  0.71598  1.0000
  H   H431      1.0  0.42137  0.87725  0.74478  1.0000
  H   H432      1.0  0.38034  0.85989  0.79998  1.0000
  H   H433      1.0  0.34748  0.81013  0.80223  1.0000
  C   C246      1.0  0.25223  0.73150  0.99037  1.0000
  H   H434      1.0  0.22825  0.69307  0.71018  1.0000
  H   H435      1.0  0.40906  0.78814  0.83191  1.0000
  H   H436      1.0  0.41565  0.54328  0.77660  1.0000
  H   H437      1.0  0.30313  0.83991  0.74790  1.0000
  H   H438      1.0  0.33237  0.89220  0.75546  1.0000
  H   H439      1.0  0.03131  0.52276  0.74160  1.0000
  C   C247      1.0  0.44866  0.55451  0.76921  1.0000
  H   H440      1.0  0.42369  0.74568  0.70911  1.0000
  H   H441      1.0  0.01854  0.72612  0.83412  1.0000
  S   S65       1.0  0.01833  0.97289  0.99725  1.0000
  H   H442      1.0  0.25274  0.74619  0.72386  1.0000
  H   H443      1.0  0.10013  0.89627  0.71782  1.0000
  H   H444      1.0  0.47364  0.99349  0.90538  1.0000
  H   H445      1.0  0.02162  0.68391  0.89076  1.0000
  H   H446      1.0  0.14729  0.68737  0.00190  1.0000
  C   C248      1.0  0.02392  0.65931  0.96147  1.0000
  C   C249      1.0  0.39478  0.73496  0.72507  1.0000
  C   C250      1.0  0.47880  0.52464  0.75266  1.0000
  Fe  Fe31      1.0  0.03323  0.95418  0.93972  1.0000
  Fe  Fe32      1.0  0.09780  0.96325  0.87643  1.0000
  H   H447      1.0  0.42315  0.57745  0.68604  1.0000
  H   H448      1.0  0.16018  0.72387  0.96613  1.0000
  H   H449      1.0  0.45232  0.82615  0.78667  1.0000
  H   H450      1.0  0.05392  0.63813  0.95833  1.0000
  C   C251      1.0  0.03300  0.77559  0.69601  1.0000
  H   H451      1.0  0.03333  0.74094  0.68522  1.0000
  C   C252      1.0  0.19399  0.66144  0.96288  1.0000
  H   H452      1.0  0.45646  0.72360  0.84676  1.0000
  H   H453      1.0  0.27511  0.84352  0.81059  1.0000
  C   C253      1.0  0.24848  0.93357  0.91615  1.0000
  H   H454      1.0  0.02458  0.58461  0.87062  1.0000
  C   C254      1.0  0.46480  0.74494  0.82366  1.0000
  H   H455      1.0  0.33938  0.68838  0.71824  1.0000
  H   H456      1.0  0.30369  0.89659  0.81633  1.0000
  C   C255      1.0  0.28775  0.87377  0.79676  1.0000
  H   H457      1.0  0.34411  0.72682  0.98080  1.0000
  H   H458      1.0  0.21517  0.67505  0.94144  1.0000
  H   H459      1.0  0.13626  0.61713  0.96630  1.0000
  H   H460      1.0  0.21218  0.93231  0.92202  1.0000
  C   C256      1.0  0.26620  0.98089  0.92326  1.0000
  H   H461      1.0  0.05646  0.61606  0.90114  1.0000
  H   H462      1.0  0.24717  0.75039  0.96544  1.0000
  H   H463      1.0  0.25913  0.89155  0.78466  1.0000
  H   H464      1.0  0.46750  0.96997  0.86161  1.0000
  S   S66       1.0  0.00813  0.62641  0.73860  1.0000
  H   H465      1.0  0.32378  0.96643  0.89119  1.0000
  H   H466      1.0  0.03266  0.56126  0.94994  1.0000
  H   H467      1.0  0.45547  0.77793  0.75982  1.0000
  H   H468      1.0  0.19157  0.79269  0.99074  1.0000
  C   C257      1.0  0.17543  0.70059  0.98568  1.0000
  C   C258      1.0  0.47732  0.56814  0.99680  1.0000
  H   H469      1.0  0.34693  0.78847  0.71656  1.0000
  H   H470      1.0  0.17072  0.60862  0.92778  1.0000
  H   H471      1.0  0.13011  0.94605  0.70645  1.0000
  C   C259      1.0  0.16711  0.88562  0.69977  1.0000
  C   C260      1.0  0.31726  0.98371  0.91667  1.0000
  H   H472      1.0  0.13440  0.65648  0.92999  1.0000
  C   C261      1.0  0.02591  0.92449  0.67887  1.0000
  H   H473      1.0  0.38794  0.67568  0.69231  1.0000
  C   C262      1.0  0.17278  0.99336  0.81105  1.0000
  H   H474      1.0  0.00149  0.53012  0.91746  1.0000
  C   C263      1.0  0.02522  0.59604  0.89868  1.0000
  H   H475      1.0  0.00319  0.77980  0.71314  1.0000
  Fe  Fe33      1.0  0.99975  0.94588  0.86448  1.0000
  H   H476      1.0  0.16202  0.84987  0.69250  1.0000
  C   C264      1.0  0.22320  0.99288  0.76037  1.0000
  H   H477      1.0  0.38886  0.99211  0.85964  1.0000
  H   H478      1.0  0.44460  0.97994  0.99277  1.0000
  H   H479      1.0  0.42164  0.81060  0.68226  1.0000
  H   H480      1.0  0.36049  0.52252  0.69277  1.0000
  C   C265      1.0  0.01773  0.66804  0.00103  1.0000
  H   H481      1.0  0.07105  0.51709  0.88289  1.0000
  H   H482      1.0  0.47975  0.72318  0.80293  1.0000
  H   H483      1.0  0.25613  0.98747  0.74970  1.0000
  C   C266      1.0  0.43926  0.83271  0.70139  1.0000
  H   H484      1.0  0.01296  0.64184  0.83425  1.0000
  H   H485      1.0  0.01618  0.87118  0.99291  1.0000
  C   C267      1.0  0.40527  0.99122  0.88573  1.0000
  H   H486      1.0  0.47621  0.89568  0.69795  1.0000
  H   H487      1.0  0.46860  0.81508  0.71218  1.0000
  H   H488      1.0  0.07509  0.49684  0.92754  1.0000
  H   H489      1.0  0.24814  0.51114  0.88503  1.0000
  H   H490      1.0  0.30001  0.50594  0.72563  1.0000
  H   H491      1.0  0.07236  0.99451  0.69128  1.0000
  C   C268      1.0  0.40948  0.50510  0.00512  1.0000
  H   H492      1.0  0.35839  0.77687  0.00528  1.0000
  C   C269      1.0  0.45687  0.87274  0.68051  1.0000
  H   H493      1.0  0.02078  0.88759  0.67698  1.0000
  C   C270      1.0  0.45548  0.99649  0.87993  1.0000
  H   H494      1.0  0.39090  0.64728  0.00770  1.0000
  Fe  Fe34      1.0  0.84289  0.07837  0.18171  1.0000
  S   S67       1.0  0.80236  0.03611  0.14408  1.0000
  S   S68       1.0  0.88138  0.03044  0.21648  1.0000
  Fe  Fe35      1.0  0.79978  0.16549  0.15465  1.0000
  S   S69       1.0  0.75881  0.12823  0.11474  1.0000
  S   S70       1.0  0.78761  0.23989  0.16536  1.0000
  Fe  Fe36      1.0  0.74537  0.08066  0.15910  1.0000
  S   S71       1.0  0.67439  0.06343  0.17346  1.0000
  Fe  Fe37      1.0  0.82088  0.08784  0.10389  1.0000
  S   S72       1.0  0.83875  0.06870  0.04722  1.0000
  S   S73       1.0  0.78407  0.11903  0.19961  1.0000
  S   S74       1.0  0.86388  0.12887  0.14064  1.0000
  S   S75       1.0  0.52249  0.42828  0.11789  1.0000
  S   S76       1.0  0.60206  0.43069  0.17781  1.0000
  Fe  Fe38      1.0  0.59434  0.40721  0.12214  1.0000
  S   S77       1.0  0.61515  0.33759  0.10471  1.0000
  S   S78       1.0  0.62027  0.47102  0.09850  1.0000
  C   C271      1.0  0.55964  0.28706  0.20574  1.0000
  Fe  Fe39      1.0  0.53249  0.45677  0.17252  1.0000
  C   C272      1.0  0.64303  0.40407  0.01613  1.0000
  H   H495      1.0  0.75534  0.41100  0.11341  1.0000
  H   H496      1.0  0.54151  0.35430  0.18717  1.0000
  H   H497      1.0  0.74364  0.14095  0.00898  1.0000
  C   C273      1.0  0.73895  0.26657  0.14897  1.0000
  C   C274      1.0  0.72806  0.30999  0.16074  1.0000
  C   C275      1.0  0.69003  0.33221  0.14777  1.0000
  C   C276      1.0  0.66286  0.31131  0.12251  1.0000
  C   C277      1.0  0.67383  0.26818  0.11062  1.0000
  C   C278      1.0  0.71138  0.24579  0.12394  1.0000
  H   H498      1.0  0.74935  0.32668  0.17969  1.0000
  H   H499      1.0  0.68217  0.36565  0.15694  1.0000
  H   H500      1.0  0.65340  0.25229  0.09066  1.0000
  H   H501      1.0  0.71951  0.21289  0.11416  1.0000
  C   C279      1.0  0.66716  0.06857  0.21952  1.0000
  C   C280      1.0  0.70071  0.05461  0.24255  1.0000
  C   C281      1.0  0.69472  0.05833  0.27923  1.0000
  C   C282      1.0  0.65573  0.07708  0.29323  1.0000
  C   C283      1.0  0.62206  0.09104  0.27022  1.0000
  C   C284      1.0  0.62767  0.08643  0.23345  1.0000
  C   C285      1.0  0.53250  0.24034  0.04597  1.0000
  H   H502      1.0  0.53123  0.41115  0.29113  1.0000
  H   H503      1.0  0.59143  0.10467  0.28068  1.0000
  H   H504      1.0  0.60167  0.09732  0.21582  1.0000
  C   C286      1.0  0.93156  0.03344  0.24049  1.0000
  C   C287      1.0  0.62244  0.14307  0.10091  1.0000
  H   H505      1.0  0.51947  0.17976  0.07421  1.0000
  Fe  Fe40      1.0  0.62202  0.49623  0.15434  1.0000
  C   C288      1.0  0.75673  0.44194  0.12982  1.0000
  H   H506      1.0  0.72007  0.04602  0.29685  1.0000
  C   C289      1.0  0.71550  0.26577  0.32444  1.0000
  H   H507      1.0  0.97412  0.07946  0.12001  1.0000
  H   H508      1.0  0.65314  0.08231  0.05486  1.0000
  H   H509      1.0  0.58656  0.10925  0.14399  1.0000
  H   H510      1.0  0.72510  0.46063  0.12622  1.0000
  Fe  Fe41      1.0  0.54885  0.49456  0.09876  1.0000
  H   H511      1.0  0.64347  0.16193  0.17000  1.0000
  C   C290      1.0  0.88883  0.04166  0.03413  1.0000
  N   N15       1.0  0.83551  0.30437  0.29891  1.0000
  C   C291      1.0  0.79485  0.27481  0.30239  1.0000
  C   C292      1.0  0.87035  0.27997  0.27735  1.0000
  H   H512      1.0  0.55886  0.30107  0.29651  1.0000
  C   C293      1.0  0.82532  0.34968  0.28308  1.0000
  C   C294      1.0  0.78681  0.35209  0.25576  1.0000
  H   H513      1.0  0.89589  0.37097  0.32545  1.0000
  C   C295      1.0  0.85687  0.26456  0.23968  1.0000
  C   C296      1.0  0.89301  0.23509  0.22313  1.0000
  C   C297      1.0  0.78493  0.39822  0.23836  1.0000
  H   H514      1.0  0.55134  0.02650  0.24991  1.0000
  H   H515      1.0  0.51873  0.04002  0.11294  1.0000
  H   H516      1.0  0.77784  0.27038  0.27659  1.0000
  H   H517      1.0  0.90025  0.30150  0.27342  1.0000
  H   H518      1.0  0.88190  0.24980  0.29200  1.0000
  C   C298      1.0  0.63050  0.35269  0.27469  1.0000
  H   H519      1.0  0.49802  0.32760  0.21196  1.0000
  H   H520      1.0  0.85581  0.36403  0.27057  1.0000
  H   H521      1.0  0.75419  0.34642  0.26886  1.0000
  H   H522      1.0  0.79024  0.32663  0.23467  1.0000
  H   H523      1.0  0.87114  0.10073  0.30313  1.0000
  H   H524      1.0  0.56053  0.26315  0.03953  1.0000
  H   H525      1.0  0.62322  0.09955  0.01665  1.0000
  H   H526      1.0  0.82574  0.24452  0.23958  1.0000
  H   H527      1.0  0.85293  0.29404  0.22223  1.0000
  H   H528      1.0  0.52919  0.30112  0.13718  1.0000
  H   H529      1.0  0.92519  0.25352  0.22162  1.0000
  H   H530      1.0  0.89750  0.20393  0.23867  1.0000
  H   H531      1.0  0.75709  0.39917  0.21910  1.0000
  H   H532      1.0  0.77928  0.42481  0.25854  1.0000
  H   H533      1.0  0.81651  0.40546  0.22408  1.0000
  H   H534      1.0  0.70327  0.27081  0.29723  1.0000
  C   C299      1.0  0.67731  0.14360  0.03196  1.0000
  H   H535      1.0  0.62460  0.43585  0.02090  1.0000
  H   H536      1.0  0.68966  0.16265  0.05523  1.0000
  H   H537      1.0  0.91591  0.47484  0.22599  1.0000
  C   C300      1.0  0.60911  0.25710  0.25134  1.0000
  H   H538      1.0  0.62939  0.33903  0.21792  1.0000
  H   H539      1.0  0.63500  0.42377  0.26197  1.0000
  H   H540      1.0  0.54980  0.09239  0.04120  1.0000
  H   H541      1.0  0.55680  0.15603  0.12742  1.0000
  C   C301      1.0  0.79658  0.47077  0.11870  1.0000
  H   H542      1.0  0.75968  0.43199  0.15796  1.0000
  H   H543      1.0  0.88297  0.22544  0.19586  1.0000
  H   H544      1.0  0.80649  0.15627  0.28369  1.0000
  S   S79       1.0  0.87046  0.46077  0.29206  1.0000
  C   C302      1.0  0.67692  0.20858  0.23805  1.0000
  H   H545      1.0  0.64676  0.25293  0.20089  1.0000
  H   H546      1.0  0.67629  0.28051  0.23571  1.0000
  H   H547      1.0  0.58295  0.34170  0.03418  1.0000
  C   C303      1.0  0.65302  0.25254  0.22969  1.0000
  N   N16       1.0  0.57945  0.29603  0.24177  1.0000
  H   H548      1.0  0.80493  0.24038  0.31026  1.0000
  H   H549      1.0  0.81834  0.00814  0.31718  1.0000
  C   C304      1.0  0.80072  0.09353  0.31277  1.0000
  C   C305      1.0  0.63800  0.11204  0.04191  1.0000
  S   S80       1.0  0.56167  0.17570  0.32893  1.0000
  H   H550      1.0  0.64942  0.11900  0.10776  1.0000
  H   H551      1.0  0.61225  0.19795  0.04290  1.0000
  H   H552      1.0  0.81647  0.37422  0.30414  1.0000
  H   H553      1.0  0.66645  0.16767  0.01142  1.0000
  C   C306      1.0  0.85435  0.31129  0.33561  1.0000
  H   H554      1.0  0.61078  0.20864  0.15426  1.0000
  C   C307      1.0  0.54189  0.39683  0.01976  1.0000
  C   C308      1.0  0.54211  0.43614  0.31119  1.0000
  H   H555      1.0  0.65390  0.32631  0.28299  1.0000
  H   H556      1.0  0.55614  0.41767  0.04137  1.0000
  N   N17       1.0  0.60219  0.13188  0.06538  1.0000
  H   H557      1.0  0.58768  0.17095  0.18666  1.0000
  H   H558      1.0  0.95559  0.49229  0.09171  1.0000
  H   H559      1.0  0.65576  0.17942  0.23089  1.0000
  C   C309      1.0  0.56506  0.09776  0.06776  1.0000
  H   H560      1.0  0.51668  0.22859  0.02110  1.0000
  C   C310      1.0  0.95461  0.07362  0.24652  1.0000
  H   H561      1.0  0.55230  0.04286  0.18467  1.0000
  H   H562      1.0  0.94280  0.10435  0.23477  1.0000
  H   H563      1.0  0.57910  0.43756  0.31141  1.0000
  H   H564      1.0  0.59055  0.22495  0.24820  1.0000
  C   C311      1.0  0.54894  0.20068  0.06773  1.0000
  H   H565      1.0  0.91497  0.03325  0.08658  1.0000
  H   H566      1.0  0.63978  0.17594  0.09946  1.0000
  C   C312      1.0  0.92068  0.02760  0.05868  1.0000
  C   C313      1.0  0.58484  0.17354  0.04749  1.0000
  C   C314      1.0  0.78439  0.14058  0.30375  1.0000
  H   H567      1.0  0.93123  0.05776  0.32450  1.0000
  H   H568      1.0  0.67479  0.40503  0.29427  1.0000
  H   H569      1.0  0.51717  0.01637  0.06875  1.0000
  H   H570      1.0  0.69322  0.48088  0.03283  1.0000
  C   C315      1.0  0.60532  0.33937  0.24039  1.0000
  H   H571      1.0  0.68205  0.32472  0.03055  1.0000
  H   H572      1.0  0.68257  0.39121  0.24819  1.0000
  H   H573      1.0  0.64575  0.38839  0.04267  1.0000
  H   H574      1.0  0.71496  0.43316  0.05658  1.0000
  H   H575      1.0  0.52280  0.22943  0.27217  1.0000
  H   H576      1.0  0.73099  0.04006  0.23207  1.0000
  C   C316      1.0  0.52376  0.01485  0.23293  1.0000
  H   H577      1.0  0.63357  0.28965  0.02717  1.0000
  H   H578      1.0  0.68491  0.20606  0.26656  1.0000
  H   H579      1.0  0.54408  0.25313  0.20479  1.0000
  H   H580      1.0  0.75015  0.13855  0.29267  1.0000
  H   H581      1.0  0.57127  0.16476  0.02087  1.0000
  C   C317      1.0  0.75951  0.29063  0.32967  1.0000
  C   C318      1.0  0.60937  0.17316  0.16292  1.0000
  H   H582      1.0  0.53711  0.11005  0.08425  1.0000
  C   C319      1.0  0.59057  0.14367  0.13342  1.0000
  H   H583      1.0  0.60677  0.35867  0.29672  1.0000
  H   H584      1.0  0.70228  0.24611  0.02133  1.0000
  C   C320      1.0  0.52131  0.04542  0.20066  1.0000
  H   H585      1.0  0.58619  0.28640  0.18521  1.0000
  C   C321      1.0  0.53856  0.02277  0.09216  1.0000
  H   H586      1.0  0.58236  0.36771  0.23496  1.0000
  H   H587      1.0  0.82667  0.44941  0.12034  1.0000
  H   H588      1.0  0.86777  0.02032  0.29343  1.0000
  C   C322      1.0  0.65735  0.39576  0.26937  1.0000
  H   H589      1.0  0.60161  0.05351  0.10470  1.0000
  C   C323      1.0  0.57902  0.05091  0.08161  1.0000
  H   H590      1.0  0.52612  0.33317  0.26725  1.0000
  H   H591      1.0  0.70841  0.20651  0.22262  1.0000
  H   H592      1.0  0.61827  0.25830  0.27986  1.0000
  H   H593      1.0  0.79873  0.07303  0.28818  1.0000
  H   H594      1.0  0.59688  0.03218  0.06049  1.0000
  H   H595      1.0  0.77767  0.07882  0.33254  1.0000
  H   H596      1.0  0.75330  0.32719  0.32767  1.0000
  H   H597      1.0  0.56333  0.21504  0.09232  1.0000
  C   C324      1.0  0.54365  0.30047  0.26964  1.0000
  H   H598      1.0  0.94484  0.06444  0.16014  1.0000
  C   C325      1.0  0.71261  0.44937  0.03028  1.0000
  H   H599      1.0  0.50425  0.35466  0.05621  1.0000
  C   C326      1.0  0.85493  0.01302  0.32040  1.0000
  H   H600      1.0  0.92653  0.31902  0.32506  1.0000
  H   H601      1.0  0.78328  0.16180  0.32792  1.0000
  H   H602      1.0  0.91454  0.44765  0.09237  1.0000
  C   C327      1.0  0.52506  0.32175  0.19252  1.0000
  H   H603      1.0  0.73006  0.09355  0.03618  1.0000
  C   C328      1.0  0.89898  0.33757  0.33801  1.0000
  H   H604      1.0  0.97458  0.11687  0.15752  1.0000
  C   C329      1.0  0.49812  0.37669  0.03311  1.0000
  H   H605      1.0  0.51725  0.08072  0.20953  1.0000
  H   H606      1.0  0.79206  0.47991  0.09064  1.0000
  C   C330      1.0  0.84939  0.09415  0.32654  1.0000
  H   H607      1.0  0.95806  0.44957  0.12517  1.0000
  C   C331      1.0  0.97508  0.08108  0.14935  1.0000
  H   H608      1.0  0.52899  0.46937  0.30336  1.0000
  H   H609      1.0  0.71961  0.22936  0.32948  1.0000
  C   C332      1.0  0.57497  0.35921  0.00920  1.0000
  C   C333      1.0  0.71650  0.11738  0.01646  1.0000
  C   C334      1.0  0.50761  0.26308  0.27013  1.0000
  C   C335      1.0  0.93520  0.47033  0.10905  1.0000
  H   H610      1.0  0.74681  0.45790  0.02118  1.0000
  H   H611      1.0  0.88687  0.47580  0.15113  1.0000
  C   C336      1.0  0.96011  0.00651  0.04699  1.0000
  C   C337      1.0  0.99274  0.07389  0.26835  1.0000
  C   C338      1.0  0.50350  0.30616  0.15799  1.0000
  C   C339      1.0  0.66142  0.30465  0.01202  1.0000
  H   H612      1.0  0.50737  0.25945  0.06139  1.0000
  C   C340      1.0  0.96797  0.99897  0.01078  1.0000
  S   S81       1.0  0.64985  0.08144  0.33951  1.0000
  Fe  Fe42      1.0  0.49483  0.14518  0.34030  1.0000
  H   H613      1.0  0.49456  0.26600  0.32688  1.0000
  S   S82       1.0  0.85137  0.45281  0.39648  1.0000
  H   H614      1.0  0.52433  0.21178  0.67229  1.0000
  Fe  Fe43      1.0  0.78220  0.42323  0.40020  1.0000
  S   S83       1.0  0.76709  0.35361  0.42057  1.0000
  C   C341      1.0  0.53897  0.45795  0.37589  1.0000
  H   H615      1.0  0.79541  0.35929  0.64846  1.0000
  Fe  Fe44      1.0  0.88831  0.14670  0.59044  1.0000
  S   S84       1.0  0.85209  0.09899  0.62632  1.0000
  S   S85       1.0  0.90122  0.13158  0.53221  1.0000
  Fe  Fe45      1.0  0.81373  0.16012  0.64514  1.0000
  H   H616      1.0  0.65771  0.36991  0.51796  1.0000
  H   H617      1.0  0.84978  0.35396  0.62842  1.0000
  S   S86       1.0  0.84631  0.20600  0.60619  1.0000
  H   H618      1.0  0.85238  0.11149  0.40333  1.0000
  Fe  Fe46      1.0  0.57838  0.37666  0.63898  1.0000
  H   H619      1.0  0.87506  0.34530  0.51255  1.0000
  S   S87       1.0  0.64133  0.34888  0.61385  1.0000
  H   H620      1.0  0.51089  0.20632  0.59184  1.0000
  S   S88       1.0  0.55996  0.44930  0.63125  1.0000
  Fe  Fe47      1.0  0.55472  0.20984  0.38140  1.0000
  S   S89       1.0  0.58673  0.15368  0.41089  1.0000
  S   S90       1.0  0.57162  0.28410  0.38451  1.0000
  H   H621      1.0  0.80418  0.31954  0.61321  1.0000
  S   S91       1.0  0.52201  0.08387  0.36715  1.0000
  Fe  Fe48      1.0  0.51709  0.12516  0.41721  1.0000
  C   C342      1.0  0.82272  0.38082  0.56020  1.0000
  Fe  Fe49      1.0  0.58827  0.11737  0.35883  1.0000
  H   H622      1.0  0.69789  0.33887  0.49232  1.0000
  C   C343      1.0  0.91267  0.34454  0.37656  1.0000
  H   H623      1.0  0.94295  0.36603  0.37785  1.0000
  C   C344      1.0  0.81337  0.35334  0.62322  1.0000
  C   C345      1.0  0.71218  0.21900  0.64628  1.0000
  C   C346      1.0  0.73188  0.24976  0.62335  1.0000
  C   C347      1.0  0.70969  0.28927  0.61418  1.0000
  C   C348      1.0  0.66766  0.29922  0.62813  1.0000
  C   C349      1.0  0.64784  0.26910  0.65178  1.0000
  H   H624      1.0  0.55321  0.23717  0.61568  1.0000
  H   H625      1.0  0.76400  0.24291  0.61206  1.0000
  H   H626      1.0  0.72517  0.31229  0.59601  1.0000
  C   C350      1.0  0.93994  0.07600  0.48283  1.0000
  C   C351      1.0  0.53515  0.48934  0.43583  1.0000
  C   C352      1.0  0.93291  0.08421  0.51904  1.0000
  C   C353      1.0  0.95113  0.05470  0.54372  1.0000
  H   H627      1.0  0.82995  0.47179  0.55737  1.0000
  H   H628      1.0  0.71590  0.42125  0.53953  1.0000
  H   H629      1.0  0.73796  0.19957  0.56058  1.0000
  H   H630      1.0  0.94607  0.06071  0.57168  1.0000
  H   H631      1.0  0.80100  0.10350  0.45346  1.0000
  C   C354      1.0  0.71255  0.33435  0.41113  1.0000
  C   C355      1.0  0.68191  0.36207  0.39409  1.0000
  C   C356      1.0  0.63900  0.34607  0.38602  1.0000
  C   C357      1.0  0.62612  0.30233  0.39502  1.0000
  C   C358      1.0  0.65665  0.27453  0.41221  1.0000
  C   C359      1.0  0.69974  0.29056  0.42028  1.0000
  H   H632      1.0  0.69125  0.39587  0.38697  1.0000
  C   C360      1.0  0.98266  0.00892  0.49600  1.0000
  H   H633      1.0  0.64716  0.24068  0.41905  1.0000
  H   H634      1.0  0.72333  0.26880  0.43321  1.0000
  C   C361      1.0  0.91311  0.37738  0.47202  1.0000
  H   H635      1.0  0.84534  0.35436  0.47201  1.0000
  H   H636      1.0  0.92530  0.34510  0.46101  1.0000
  N   N18       1.0  0.86433  0.05202  0.34502  1.0000
  H   H637      1.0  0.68538  0.39638  0.48112  1.0000
  H   H638      1.0  0.77970  0.35744  0.49994  1.0000
  H   H639      1.0  0.61536  0.15263  0.64177  1.0000
  H   H640      1.0  0.83040  0.33040  0.35239  1.0000
  H   H641      1.0  0.52010  0.48630  0.46263  1.0000
  C   C362      1.0  0.72644  0.38856  0.52835  1.0000
  C   C363      1.0  0.96463  0.03852  0.47130  1.0000
  H   H642      1.0  0.52314  0.24934  0.50750  1.0000
  H   H643      1.0  0.92618  0.09894  0.46377  1.0000
  N   N19       1.0  0.81006  0.41138  0.52991  1.0000
  H   H644      1.0  0.92090  0.08524  0.40261  1.0000
  C   C364      1.0  0.93148  0.09222  0.37513  1.0000
  C   C365      1.0  0.68972  0.37247  0.50328  1.0000
  H   H645      1.0  0.60421  0.09395  0.63480  1.0000
  S   S92       1.0  0.94163  0.16487  0.62947  1.0000
  C   C366      1.0  0.77174  0.39202  0.50899  1.0000
  H   H646      1.0  0.84100  0.05873  0.45341  1.0000
  C   C367      1.0  0.55756  0.35239  0.47592  1.0000
  H   H647      1.0  0.66072  0.11423  0.63329  1.0000
  H   H648      1.0  0.53556  0.16423  0.64376  1.0000
  C   C368      1.0  0.54303  0.40716  0.42635  1.0000
  H   H649      1.0  0.88563  0.36118  0.39169  1.0000
  S   S93       1.0  0.50141  0.09847  0.47275  1.0000
  H   H650      1.0  0.90892  0.40140  0.44995  1.0000
  H   H651      1.0  0.80934  0.02402  0.37544  1.0000
  H   H652      1.0  0.86135  0.02249  0.39712  1.0000
  H   H653      1.0  0.69007  0.27914  0.34283  1.0000
  H   H654      1.0  0.72855  0.36358  0.54976  1.0000
  H   H655      1.0  0.75343  0.25820  0.49516  1.0000
  Fe  Fe50      1.0  0.89577  0.21846  0.64951  1.0000
  C   C369      1.0  0.52435  0.42306  0.34759  1.0000
  C   C370      1.0  0.82587  0.08583  0.40130  1.0000
  H   H656      1.0  0.52631  0.19480  0.48642  1.0000
  H   H657      1.0  0.76667  0.41143  0.48426  1.0000
  C   C371      1.0  0.80012  0.45805  0.54339  1.0000
  H   H658      1.0  0.61591  0.36754  0.37225  1.0000
  C   C372      1.0  0.62564  0.12249  0.62665  1.0000
  H   H659      1.0  0.96323  0.35330  0.61251  1.0000
  H   H660      1.0  0.92019  0.31188  0.38916  1.0000
  H   H661      1.0  0.90241  0.49356  0.47148  1.0000
  C   C373      1.0  0.91908  0.49329  0.64326  1.0000
  Fe  Fe51      1.0  0.90420  0.11919  0.66640  1.0000
  H   H662      1.0  0.64850  0.08668  0.45449  1.0000
  H   H663      1.0  0.81277  0.42212  0.60782  1.0000
  S   S94       1.0  0.76493  0.43852  0.34427  1.0000
  C   C374      1.0  0.86885  0.36981  0.49119  1.0000
  S   S95       1.0  0.50988  0.35171  0.62526  1.0000
  H   H664      1.0  0.91942  0.12569  0.36712  1.0000
  H   H665      1.0  0.61533  0.27643  0.66277  1.0000
  H   H666      1.0  0.79450  0.23882  0.52623  1.0000
  H   H667      1.0  0.91557  0.40479  0.64750  1.0000
  H   H668      1.0  0.89282  0.47532  0.62796  1.0000
  H   H669      1.0  0.53477  0.04691  0.62447  1.0000
  H   H670      1.0  0.92681  0.02316  0.36244  1.0000
  H   H671      1.0  0.85351  0.12405  0.34367  1.0000
  H   H672      1.0  0.59388  0.35280  0.47009  1.0000
  C   C375      1.0  0.81223  0.07315  0.43890  1.0000
  H   H673      1.0  0.53628  0.24440  0.46099  1.0000
  H   H674      1.0  0.75238  0.27780  0.54048  1.0000
  H   H675      1.0  0.77296  0.45770  0.56330  1.0000
  H   H676      1.0  0.60779  0.20924  0.47396  1.0000
  H   H677      1.0  0.93862  0.39069  0.49061  1.0000
  C   C376      1.0  0.51321  0.19298  0.64846  1.0000
  H   H678      1.0  0.63111  0.09886  0.57371  1.0000
  H   H679      1.0  0.81621  0.34512  0.55295  1.0000
  C   C377      1.0  0.91414  0.05454  0.35048  1.0000
  H   H680      1.0  0.73740  0.18052  0.51554  1.0000
  H   H681      1.0  0.65290  0.05371  0.49448  1.0000
  C   C378      1.0  0.80079  0.38967  0.59676  1.0000
  H   H682      1.0  0.55277  0.34583  0.50455  1.0000
  C   C379      1.0  0.53639  0.39718  0.46623  1.0000
  C   C380      1.0  0.84044  0.04388  0.37968  1.0000
  H   H683      1.0  0.85928  0.38291  0.56548  1.0000
  C   C381      1.0  0.51842  0.22435  0.61690  1.0000
  H   H684      1.0  0.76401  0.39099  0.59519  1.0000
  H   H685      1.0  0.58499  0.13671  0.58179  1.0000
  H   H686      1.0  0.96981  0.03254  0.44340  1.0000
  H   H687      1.0  0.60391  0.46819  0.44923  1.0000
  N   N20       1.0  0.64557  0.18430  0.53653  1.0000
  C   C382      1.0  0.59953  0.20375  0.53197  1.0000
  C   C383      1.0  0.65081  0.16955  0.57445  1.0000
  C   C384      1.0  0.67888  0.22167  0.53020  1.0000
  C   C385      1.0  0.65506  0.14619  0.51115  1.0000
  C   C386      1.0  0.61515  0.11565  0.50053  1.0000
  C   C387      1.0  0.59076  0.22689  0.49592  1.0000
  C   C388      1.0  0.72899  0.20901  0.53326  1.0000
  C   C389      1.0  0.62074  0.13039  0.58697  1.0000
  H   H688      1.0  0.57609  0.45841  0.37532  1.0000
  C   C390      1.0  0.63064  0.07543  0.47863  1.0000
  C   C391      1.0  0.54103  0.22898  0.48738  1.0000
  C   C392      1.0  0.75899  0.24850  0.52311  1.0000
  H   H689      1.0  0.59286  0.22931  0.55292  1.0000
  H   H690      1.0  0.57344  0.17781  0.53589  1.0000
  H   H691      1.0  0.68533  0.15806  0.57967  1.0000
  H   H692      1.0  0.64515  0.19862  0.59247  1.0000
  H   H693      1.0  0.67237  0.25024  0.54862  1.0000
  H   H694      1.0  0.67507  0.23538  0.50308  1.0000
  H   H695      1.0  0.66862  0.15935  0.48575  1.0000
  H   H696      1.0  0.68184  0.12441  0.52198  1.0000
  H   H697      1.0  0.59120  0.13456  0.48427  1.0000
  H   H698      1.0  0.59622  0.10279  0.52338  1.0000
  H   H699      1.0  0.60379  0.26182  0.49663  1.0000
  H   H700      1.0  0.57946  0.40680  0.42093  1.0000
  C   C393      1.0  0.84984  0.41482  0.50545  1.0000
  H   H701      1.0  0.55228  0.42329  0.48300  1.0000
  H   H702      1.0  0.79670  0.10192  0.38862  1.0000
  H   H703      1.0  0.84158  0.43445  0.48146  1.0000
  H   H704      1.0  0.54171  0.32481  0.46062  1.0000
  N   N21       1.0  0.52234  0.44984  0.41296  1.0000
  H   H705      1.0  0.75327  0.48287  0.50334  1.0000
  H   H706      1.0  0.78444  0.04844  0.43848  1.0000
  C   C394      1.0  0.67002  0.22898  0.66067  1.0000
  H   H707      1.0  0.87748  0.43329  0.51891  1.0000
  H   H708      1.0  0.60117  0.05535  0.47029  1.0000
  H   H709      1.0  0.81061  0.49651  0.49409  1.0000
  H   H710      1.0  0.49559  0.25339  0.61959  1.0000
  H   H711      1.0  0.52951  0.37770  0.41164  1.0000
  H   H712      1.0  0.53755  0.38932  0.35385  1.0000
  S   S96       1.0  0.73906  0.16766  0.65647  1.0000
  H   H713      1.0  0.52883  0.49171  0.36671  1.0000
  C   C395      1.0  0.94382  0.41923  0.66281  1.0000
  H   H714      1.0  0.51685  0.10355  0.67046  1.0000
  H   H715      1.0  0.77105  0.28352  0.35698  1.0000
  H   H716      1.0  0.85076  0.41779  0.67346  1.0000
  Fe  Fe52      1.0  0.83086  0.47365  0.34180  1.0000
  S   S97       1.0  0.75143  0.48579  0.42242  1.0000
  C   C396      1.0  0.78558  0.49281  0.51535  1.0000
  C   C397      1.0  0.97592  0.01732  0.53222  1.0000
  C   C398      1.0  0.98237  0.09421  0.37523  1.0000
  C   C399      1.0  0.49913  0.03691  0.62555  1.0000
  C   C400      1.0  0.98601  0.41417  0.63933  1.0000
  H   H717      1.0  0.98352  0.43462  0.61503  1.0000
  C   C401      1.0  0.99244  0.36543  0.62790  1.0000
  H   H718      1.0  0.96121  0.48545  0.51732  1.0000
  S   S98       1.0  0.90979  0.28993  0.66617  1.0000
  H   H719      1.0  0.83649  0.47581  0.66912  1.0000
  H   H720      1.0  0.50047  0.39534  0.47307  1.0000
  H   H721      1.0  0.49445  0.01121  0.64642  1.0000
  H   H722      1.0  0.85913  0.27840  0.34896  1.0000
  H   H723      1.0  0.63574  0.46657  0.77513  1.0000
  N   N22       1.0  0.61717  0.37431  0.99113  1.0000
  H   H724      1.0  0.93870  0.23237  0.72358  1.0000
  Fe  Fe53      1.0  0.78816  0.40788  0.88347  1.0000
  S   S99       1.0  0.84932  0.37923  0.90889  1.0000
  S   S100      1.0  0.71560  0.38704  0.89172  1.0000
  H   H725      1.0  0.78285  0.43407  0.70656  1.0000
  C   C402      1.0  0.57168  0.38015  0.93290  1.0000
  Fe  Fe54      1.0  0.87785  0.37950  0.85383  1.0000
  S   S101      1.0  0.91376  0.31867  0.83243  1.0000
  H   H726      1.0  0.88029  0.09258  0.91731  1.0000
  S   S102      1.0  0.81527  0.40392  0.82829  1.0000
  S   S103      1.0  0.86224  0.17450  0.68917  1.0000
  C   C403      1.0  0.69054  0.41761  0.00371  1.0000
  S   S104      1.0  0.95532  0.07559  0.69371  1.0000
  C   C404      1.0  0.52364  0.16956  0.76503  1.0000
  Fe  Fe55      1.0  0.57149  0.17650  0.90109  1.0000
  H   H727      1.0  0.67261  0.34285  0.96405  1.0000
  S   S105      1.0  0.64675  0.18468  0.89944  1.0000
  H   H728      1.0  0.55723  0.44372  0.90768  1.0000
  S   S106      1.0  0.52842  0.19845  0.85605  1.0000
  S   S107      1.0  0.52841  0.11550  0.91310  1.0000
  S   S108      1.0  0.53898  0.22019  0.94168  1.0000
  H   H729      1.0  0.87153  0.99947  0.78815  1.0000
  H   H730      1.0  0.96267  0.23063  0.93960  1.0000
  H   H731      1.0  0.81395  0.13724  0.79644  1.0000
  H   H732      1.0  0.88313  0.37500  0.77512  1.0000
  C   C405      1.0  0.81524  0.44572  0.71748  1.0000
  H   H733      1.0  0.59883  0.32273  0.77083  1.0000
  C   C406      1.0  0.94907  0.04395  0.73254  1.0000
  H   H734      1.0  0.94141  0.00644  0.95848  1.0000
  H   H735      1.0  0.66640  0.36763  0.78949  1.0000
  C   C407      1.0  0.88539  0.12562  0.80057  1.0000
  H   H736      1.0  0.87950  0.09001  0.80711  1.0000
  S   S109      1.0  0.81065  0.47966  0.89143  1.0000
  C   C408      1.0  0.89649  0.03353  0.99797  1.0000
  Fe  Fe56      1.0  0.87446  0.45078  0.91267  1.0000
  H   H737      1.0  0.94050  0.24460  0.78856  1.0000
  C   C409      1.0  0.69816  0.33017  0.89313  1.0000
  C   C410      1.0  0.72591  0.29608  0.90544  1.0000
  C   C411      1.0  0.70997  0.25154  0.90746  1.0000
  C   C412      1.0  0.66585  0.24097  0.89808  1.0000
  C   C413      1.0  0.63785  0.27533  0.88672  1.0000
  C   C414      1.0  0.65421  0.31939  0.88368  1.0000
  H   H738      1.0  0.75958  0.30404  0.91362  1.0000
  H   H739      1.0  0.73177  0.22528  0.91670  1.0000
  H   H740      1.0  0.60382  0.26779  0.87923  1.0000
  H   H741      1.0  0.63271  0.34502  0.87335  1.0000
  C   C415      1.0  0.91167  0.31056  0.78628  1.0000
  C   C416      1.0  0.92719  0.27028  0.77155  1.0000
  C   C417      1.0  0.92624  0.26334  0.73476  1.0000
  C   C418      1.0  0.91041  0.29702  0.71248  1.0000
  C   C419      1.0  0.89446  0.33698  0.72728  1.0000
  C   C420      1.0  0.89501  0.34382  0.76403  1.0000
  H   H742      1.0  0.65723  0.46490  0.86881  1.0000
  S   S110      1.0  0.91717  0.47453  0.95942  1.0000
  S   S111      1.0  0.90846  0.44788  0.85951  1.0000
  H   H743      1.0  0.97079  0.09216  0.80195  1.0000
  H   H744      1.0  0.90469  0.43903  0.72302  1.0000
  H   H745      1.0  0.66493  0.39602  0.74718  1.0000
  C   C421      1.0  0.51533  0.14665  0.72945  1.0000
  Fe  Fe57      1.0  0.54176  0.44775  0.68902  1.0000
  H   H746      1.0  0.59832  0.41075  0.88492  1.0000
  C   C422      1.0  0.69030  0.26613  0.99858  1.0000
  H   H747      1.0  0.90050  0.18868  0.82452  1.0000
  H   H748      1.0  0.92518  0.06732  0.84710  1.0000
  H   H749      1.0  0.87193  0.04397  0.97881  1.0000
  H   H750      1.0  0.52039  0.11011  0.73328  1.0000
  C   C423      1.0  0.92292  0.09048  0.87005  1.0000
  C   C424      1.0  0.84452  0.14148  0.78022  1.0000
  H   H751      1.0  0.55720  0.33374  0.99277  1.0000
  H   H752      1.0  0.54088  0.15869  0.71065  1.0000
  C   C425      1.0  0.97281  0.48858  0.69168  1.0000
  N   N23       1.0  0.71110  0.23643  0.77428  1.0000
  C   C426      1.0  0.74082  0.23333  0.74225  1.0000
  C   C427      1.0  0.70027  0.18956  0.78665  1.0000
  C   C428      1.0  0.66951  0.26140  0.76402  1.0000
  C   C429      1.0  0.73416  0.26092  0.80425  1.0000
  C   C430      1.0  0.78366  0.24770  0.81033  1.0000
  C   C431      1.0  0.75619  0.27893  0.72662  1.0000
  C   C432      1.0  0.63323  0.26485  0.79302  1.0000
  C   C433      1.0  0.67061  0.16083  0.76162  1.0000
  C   C434      1.0  0.66019  0.11528  0.77806  1.0000
  C   C435      1.0  0.80216  0.26651  0.84480  1.0000
  C   C436      1.0  0.59135  0.28788  0.77919  1.0000
  H   H753      1.0  0.72351  0.21558  0.72052  1.0000
  H   H754      1.0  0.77034  0.21190  0.74766  1.0000
  H   H755      1.0  0.73142  0.17022  0.79079  1.0000
  H   H756      1.0  0.68396  0.19034  0.81315  1.0000
  H   H757      1.0  0.65441  0.24668  0.73973  1.0000
  H   H758      1.0  0.67794  0.29630  0.75637  1.0000
  H   H759      1.0  0.73305  0.29788  0.80052  1.0000
  H   H760      1.0  0.71591  0.25547  0.82953  1.0000
  H   H761      1.0  0.80506  0.26067  0.78867  1.0000
  H   H762      1.0  0.78740  0.21089  0.81136  1.0000
  H   H763      1.0  0.72949  0.29285  0.70955  1.0000
  H   H764      1.0  0.76383  0.30413  0.74730  1.0000
  H   H765      1.0  0.64609  0.28505  0.81539  1.0000
  H   H766      1.0  0.62308  0.23146  0.80301  1.0000
  H   H767      1.0  0.63825  0.17726  0.75632  1.0000
  H   H768      1.0  0.68766  0.15460  0.73603  1.0000
  H   H769      1.0  0.64186  0.11960  0.80341  1.0000
  H   H770      1.0  0.63900  0.09532  0.75974  1.0000
  H   H771      1.0  0.69142  0.09640  0.78299  1.0000
  H   H772      1.0  0.78751  0.24844  0.86752  1.0000
  H   H773      1.0  0.83866  0.26110  0.84563  1.0000
  H   H774      1.0  0.79564  0.30303  0.84715  1.0000
  H   H775      1.0  0.57709  0.26908  0.75643  1.0000
  H   H776      1.0  0.56588  0.28910  0.80050  1.0000
  S   S112      1.0  0.56653  0.37765  0.69747  1.0000
  H   H777      1.0  0.88092  0.36225  0.71023  1.0000
  H   H778      1.0  0.90876  0.23315  0.87069  1.0000
  H   H779      1.0  0.71630  0.37217  0.76302  1.0000
  H   H780      1.0  0.71934  0.48980  0.92222  1.0000
  H   H781      1.0  0.53842  0.37832  0.94564  1.0000
  H   H782      1.0  0.52143  0.20653  0.76235  1.0000
  C   C437      1.0  0.60715  0.40062  0.95813  1.0000
  C   C438      1.0  0.87887  0.07942  0.88982  1.0000
  H   H783      1.0  0.90296  0.23880  0.93605  1.0000
  C   C439      1.0  0.67895  0.49099  0.85672  1.0000
  H   H784      1.0  0.95082  0.08020  0.88770  1.0000
  C   C440      1.0  0.90398  0.00743  0.77731  1.0000
  H   H785      1.0  0.84205  0.02175  0.90929  1.0000
  H   H786      1.0  0.57282  0.47331  0.83533  1.0000
  C   C441      1.0  0.90721  0.03379  0.74666  1.0000
  H   H787      1.0  0.91427  0.12876  0.78243  1.0000
  H   H788      1.0  0.71234  0.47507  0.85506  1.0000
  H   H789      1.0  0.62330  0.31055  0.96401  1.0000
  H   H790      1.0  0.71708  0.42487  0.81339  1.0000
  H   H791      1.0  0.67082  0.24388  0.98068  1.0000
  H   H792      1.0  0.94088  0.27944  0.91769  1.0000
  H   H793      1.0  0.84952  0.09395  0.87641  1.0000
  C   C442      1.0  0.93548  0.24307  0.92236  1.0000
  H   H794      1.0  0.86075  0.15758  0.84836  1.0000
  H   H795      1.0  0.79219  0.25027  0.68180  1.0000
  C   C443      1.0  0.65480  0.46012  0.79985  1.0000
  C   C444      1.0  0.84934  0.45023  0.68764  1.0000
  C   C445      1.0  0.93576  0.01222  0.98635  1.0000
  H   H796      1.0  0.84846  0.17715  0.77244  1.0000
  H   H797      1.0  0.82653  0.42112  0.73748  1.0000
  C   C446      1.0  0.89309  0.15430  0.83417  1.0000
  Fe  Fe58      1.0  0.84345  0.47266  0.83816  1.0000
  H   H798      1.0  0.54037  0.39488  0.88260  1.0000
  C   C447      1.0  0.93545  0.21819  0.88698  1.0000
  H   H799      1.0  0.89330  0.16468  0.90461  1.0000
  C   C448      1.0  0.69734  0.43349  0.78969  1.0000
  C   C449      1.0  0.79811  0.27348  0.70427  1.0000
  C   C450      1.0  0.68529  0.38962  0.77115  1.0000
  C   C451      1.0  0.92681  0.16725  0.89212  1.0000
  H   H800      1.0  0.58080  0.34578  0.92452  1.0000
  H   H801      1.0  0.63806  0.40514  0.94219  1.0000
  N   N24       1.0  0.92920  0.13875  0.85904  1.0000
  H   H802      1.0  0.84062  0.12094  0.75585  1.0000
  H   H803      1.0  0.87744  0.04582  0.73376  1.0000
  C   C452      1.0  0.56666  0.40915  0.89999  1.0000
  H   H804      1.0  0.68943  0.43493  0.97786  1.0000
  H   H805      1.0  0.63319  0.43692  0.81527  1.0000
  H   H806      1.0  0.82561  0.26022  0.72072  1.0000
  H   H807      1.0  0.94778  0.39639  0.68573  1.0000
  H   H808      1.0  0.95098  0.15474  0.91216  1.0000
  C   C453      1.0  0.98754  0.02730  0.74897  1.0000
  H   H809      1.0  0.55737  0.16098  0.77489  1.0000
  H   H810      1.0  0.71984  0.27930  0.98421  1.0000
  H   H811      1.0  0.59617  0.43523  0.96494  1.0000
  C   C454      1.0  0.64369  0.33335  0.98089  1.0000
  H   H812      1.0  0.71889  0.45291  0.77143  1.0000
  C   C455      1.0  0.89600  0.46358  0.70207  1.0000
  H   H813      1.0  0.70599  0.09857  0.99245  1.0000
  C   C456      1.0  0.87121  0.02886  0.89207  1.0000
  H   H814      1.0  0.80863  0.30642  0.69370  1.0000
  C   C457      1.0  0.97493  0.14544  0.84269  1.0000
  H   H815      1.0  0.96989  0.46521  0.74665  1.0000
  H   H816      1.0  0.65449  0.20566  0.67871  1.0000
  H   H817      1.0  0.97512  0.17550  0.82530  1.0000
  H   H818      1.0  0.80998  0.47866  0.73055  1.0000
  H   H819      1.0  0.71236  0.38786  0.00097  1.0000
  H   H820      1.0  0.86435  0.01479  0.86538  1.0000
  H   H821      1.0  0.53397  0.41931  0.99742  1.0000
  H   H822      1.0  0.96793  0.22476  0.87392  1.0000
  Fe  Fe59      1.0  0.49662  0.35783  0.68354  1.0000
  H   H823      1.0  0.49619  0.00986  0.75162  1.0000
  H   H824      1.0  0.49793  0.06058  0.80413  1.0000
  H   H825      1.0  0.49868  0.15822  0.78483  1.0000
  H   H826      1.0  0.50133  0.37617  0.82550  1.0000
  C   C458      1.0  0.99331  0.46418  0.72389  1.0000
  C   C459      1.0  0.98435  0.00160  0.77987  1.0000
  H   H827      1.0  0.90085  0.01185  0.90325  1.0000
  H   H828      1.0  0.66020  0.49550  0.92994  1.0000
  H   H829      1.0  0.49468  0.37276  0.76001  1.0000
  H   H830      1.0  0.89258  0.49579  0.71658  1.0000
  N   N25       1.0  0.93290  0.46622  0.67499  1.0000
  C   C460      1.0  0.52390  0.82458  0.18935  1.0000
  C   C461      1.0  0.71800  0.52837  0.24403  1.0000
  H   H831      1.0  0.66343  0.98020  0.31354  1.0000
  C   C462      1.0  0.81331  0.58399  0.11046  1.0000
  H   H832      1.0  0.77331  0.97995  0.04371  1.0000
  C   C463      1.0  0.77635  0.60970  0.05399  1.0000
  S   S113      1.0  0.93195  0.68609  0.15798  1.0000
  H   H833      1.0  0.82376  0.78905  0.13784  1.0000
  H   H834      1.0  0.60138  0.60344  0.30077  1.0000
  C   C464      1.0  0.54401  0.66713  0.26958  1.0000
  C   C465      1.0  0.67892  0.52600  0.22399  1.0000
  Fe  Fe60      1.0  0.96239  0.66532  0.10566  1.0000
  H   H835      1.0  0.78669  0.58011  0.18972  1.0000
  H   H836      1.0  0.88650  0.93033  0.03151  1.0000
  C   C466      1.0  0.67468  0.52329  0.29812  1.0000
  N   N26       1.0  0.58518  0.67351  0.29192  1.0000
  H   H837      1.0  0.97387  0.56882  0.05633  1.0000
  C   C467      1.0  0.94842  0.52803  0.01331  1.0000
  H   H838      1.0  0.53910  0.64176  0.15035  1.0000
  C   C468      1.0  0.52520  0.65911  0.12692  1.0000
  C   C469      1.0  0.52001  0.88600  0.23614  1.0000
  H   H839      1.0  0.63381  0.61426  0.24609  1.0000
  H   H840      1.0  0.87124  0.89682  0.31615  1.0000
  H   H841      1.0  0.76537  0.54620  0.07827  1.0000
  H   H842      1.0  0.81310  0.63073  0.17447  1.0000
  S   S114      1.0  0.91452  0.64657  0.06076  1.0000
  H   H843      1.0  0.91088  0.96647  0.32723  1.0000
  H   H844      1.0  0.49750  0.58974  0.21057  1.0000
  H   H845      1.0  0.91379  0.96618  0.14379  1.0000
  C   C470      1.0  0.95461  0.87727  0.02283  1.0000
  H   H846      1.0  0.84990  0.91807  0.12468  1.0000
  C   C471      1.0  0.54290  0.62507  0.24558  1.0000
  C   C472      1.0  0.91650  0.59905  0.03228  1.0000
  H   H847      1.0  0.78474  0.59909  0.12496  1.0000
  H   H848      1.0  0.76794  0.52779  0.14610  1.0000
  C   C473      1.0  0.85267  0.83659  0.07718  1.0000
  H   H849      1.0  0.58417  0.97961  0.30180  1.0000
  H   H850      1.0  0.82777  0.85135  0.09543  1.0000
  H   H851      1.0  0.49945  0.52021  0.25614  1.0000
  H   H852      1.0  0.87287  0.65766  0.32491  1.0000
  H   H853      1.0  0.83753  0.61182  0.10569  1.0000
  H   H854      1.0  0.77830  0.93221  0.01452  1.0000
  H   H855      1.0  0.67346  0.66653  0.20576  1.0000
  H   H856      1.0  0.88765  0.77195  0.07560  1.0000
  C   C474      1.0  0.82486  0.93289  0.05879  1.0000
  H   H857      1.0  0.71208  0.68072  0.24102  1.0000
  H   H858      1.0  0.81842  0.92543  0.31396  1.0000
  H   H859      1.0  0.93676  0.61082  0.29962  1.0000
  H   H860      1.0  0.98942  0.99243  0.17128  1.0000
  H   H861      1.0  0.89968  0.80469  0.11438  1.0000
  H   H862      1.0  0.88786  0.93709  0.18001  1.0000
  C   C475      1.0  0.52895  0.96510  0.22167  1.0000
  C   C476      1.0  0.94538  0.54091  0.22904  1.0000
  C   C477      1.0  0.50700  0.94159  0.28224  1.0000
  C   C478      1.0  0.57375  0.75984  0.29593  1.0000
  H   H863      1.0  0.53565  0.69484  0.12792  1.0000
  C   C479      1.0  0.71592  0.52657  0.28100  1.0000
  H   H864      1.0  0.54235  0.81260  0.16568  1.0000
  H   H865      1.0  0.96140  0.74492  0.22797  1.0000
  C   C480      1.0  0.63769  0.52122  0.24101  1.0000
  H   H866      1.0  0.88141  0.59316  0.15878  1.0000
  H   H867      1.0  0.70999  0.62455  0.22342  1.0000
  S   S115      1.0  0.96129  0.81486  0.17512  1.0000
  C   C481      1.0  0.96583  0.81657  0.22167  1.0000
  H   H868      1.0  0.87630  0.87009  0.14333  1.0000
  C   C482      1.0  0.59330  0.63413  0.31600  1.0000
  C   C483      1.0  0.85314  0.57029  0.16542  1.0000
  H   H869      1.0  0.81017  0.75794  0.09790  1.0000
  H   H870      1.0  0.92957  0.96257  0.25122  1.0000
  C   C484      1.0  0.62587  0.68232  0.26910  1.0000
  H   H871      1.0  0.56840  0.62794  0.22448  1.0000
  H   H872      1.0  0.53936  0.69621  0.25170  1.0000
  C   C485      1.0  0.80152  0.51253  0.14312  1.0000
  H   H873      1.0  0.50213  0.87530  0.30795  1.0000
  H   H874      1.0  0.61404  0.99343  0.26193  1.0000
  H   H875      1.0  0.64372  0.92357  0.31650  1.0000
  H   H876      1.0  0.81196  0.62878  0.23917  1.0000
  C   C486      1.0  0.81905  0.59792  0.18739  1.0000
  C   C487      1.0  0.79396  0.56930  0.07431  1.0000
  H   H877      1.0  0.64990  0.70461  0.28330  1.0000
  H   H878      1.0  0.49793  0.95727  0.20650  1.0000
  N   N27       1.0  0.53574  0.93076  0.25053  1.0000
  C   C488      1.0  0.85478  0.92887  0.30909  1.0000
  C   C489      1.0  0.87420  0.52933  0.11203  1.0000
  H   H879      1.0  0.60736  0.51923  0.22568  1.0000
  C   C490      1.0  0.58437  0.92656  0.26004  1.0000
  N   N28       1.0  0.88595  0.87129  0.06489  1.0000
  H   H880      1.0  0.74864  0.62587  0.06875  1.0000
  C   C491      1.0  0.54282  0.86973  0.20148  1.0000
  C   C492      1.0  0.91977  0.50485  0.24185  1.0000
  C   C493      1.0  0.97662  0.81900  0.29575  1.0000
  H   H881      1.0  0.52509  0.60987  0.32480  1.0000
  H   H882      1.0  0.54259  0.76108  0.28015  1.0000
  C   C494      1.0  0.60582  0.96611  0.28061  1.0000
  H   H883      1.0  0.53770  0.89388  0.17965  1.0000
  S   S116      1.0  0.98863  0.62193  0.23747  1.0000
  C   C495      1.0  0.94876  0.56572  0.03595  1.0000
  C   C496      1.0  0.68957  0.65434  0.23030  1.0000
  C   C497      1.0  0.63555  0.52042  0.27808  1.0000
  H   H884      1.0  0.80134  0.91231  0.07439  1.0000
  H   H885      1.0  0.97052  0.90131  0.04140  1.0000
  H   H886      1.0  0.60507  0.92245  0.23585  1.0000
  H   H887      1.0  0.84877  0.88751  0.01783  1.0000
  H   H888      1.0  0.93982  0.82363  0.05858  1.0000
  H   H889      1.0  0.81940  0.55298  0.05740  1.0000
  H   H890      1.0  0.57912  0.86514  0.20544  1.0000
  C   C498      1.0  0.49784  0.62058  0.22709  1.0000
  H   H891      1.0  0.86726  0.54471  0.18351  1.0000
  H   H892      1.0  0.92311  0.92734  0.08631  1.0000
  C   C499      1.0  0.79730  0.95684  0.03069  1.0000
  Fe  Fe61      1.0  0.98995  0.65061  0.18245  1.0000
  H   H893      1.0  0.67219  0.62735  0.28089  1.0000
  H   H894      1.0  0.86875  0.62551  0.22361  1.0000
  H   H895      1.0  0.83971  0.95911  0.07616  1.0000
  H   H896      1.0  0.58976  0.89535  0.27537  1.0000
  C   C500      1.0  0.83625  0.60754  0.22467  1.0000
  H   H897      1.0  0.94010  0.91716  0.16295  1.0000
  S   S117      1.0  0.55309  0.52494  0.15353  1.0000
  H   H898      1.0  0.89107  0.54763  0.32216  1.0000
  H   H899      1.0  0.90313  0.82641  0.02169  1.0000
  H   H900      1.0  0.52521  0.85889  0.25569  1.0000
  C   C501      1.0  0.90969  0.89440  0.09518  1.0000
  C   C502      1.0  0.88254  0.90238  0.12968  1.0000
  C   C503      1.0  0.87294  0.79494  0.09564  1.0000
  H   H901      1.0  0.93928  0.87462  0.10349  1.0000
  H   H902      1.0  0.51362  0.66689  0.28657  1.0000
  H   H903      1.0  0.84036  0.57579  0.23952  1.0000
  C   C504      1.0  0.90785  0.93261  0.15552  1.0000
  C   C505      1.0  0.83755  0.76849  0.11587  1.0000
  H   H904      1.0  0.85281  0.73799  0.12734  1.0000
  H   H905      1.0  0.83278  0.82392  0.05433  1.0000
  H   H906      1.0  0.80336  0.63468  0.04970  1.0000
  H   H907      1.0  0.60237  0.76625  0.27808  1.0000
  C   C506      1.0  0.64948  0.95181  0.29801  1.0000
  N   N29       1.0  0.83509  0.54801  0.13237  1.0000
  H   H908      1.0  0.96986  0.88865  0.22469  1.0000
  C   C507      1.0  0.51183  0.91016  0.31458  1.0000
  S   S118      1.0  0.52791  0.53815  0.05223  1.0000
  C   C508      1.0  0.92007  0.84730  0.04222  1.0000
  C   C509      1.0  0.93168  0.58140  0.28343  1.0000
  H   H909      1.0  0.76365  0.59860  0.02780  1.0000
  H   H910      1.0  0.61619  0.70080  0.24478  1.0000
  H   H911      1.0  0.54850  0.59394  0.26081  1.0000
  C   C510      1.0  0.90574  0.54572  0.29611  1.0000
  H   H912      1.0  0.89518  0.55725  0.10161  1.0000
  C   C511      1.0  0.90021  0.50710  0.27555  1.0000
  C   C512      1.0  0.87426  0.96696  0.33145  1.0000
  C   C513      1.0  0.97596  0.85883  0.27640  1.0000
  S   S119      1.0  0.68172  0.53023  0.17781  1.0000
  H   H913      1.0  0.52691  0.79905  0.21049  1.0000
  H   H914      1.0  0.96209  0.53844  0.20380  1.0000
  C   C514      1.0  0.86256  0.90486  0.04163  1.0000
  C   C515      1.0  0.57780  0.71416  0.31519  1.0000
  H   H915      1.0  0.53913  0.64363  0.10252  1.0000
  C   C516      1.0  0.65436  0.64130  0.25766  1.0000
  H   H916      1.0  0.51324  0.97601  0.29224  1.0000
  H   H917      1.0  0.98481  0.99620  0.06599  1.0000
  H   H918      1.0  0.74630  0.52843  0.29622  1.0000
  C   C517      1.0  0.97094  0.77803  0.27808  1.0000
  H   H919      1.0  0.55677  0.96351  0.20217  1.0000
  Fe  Fe62      1.0  0.97771  0.74546  0.15520  1.0000
  H   H920      1.0  0.97950  0.89036  0.29009  1.0000
  C   C518      1.0  0.95168  0.57905  0.25002  1.0000
  H   H921      1.0  0.60363  0.51742  0.29114  1.0000
  H   H922      1.0  0.86055  0.93516  0.28051  1.0000
  C   C519      1.0  0.96582  0.77681  0.24119  1.0000
  H   H923      1.0  0.74998  0.53128  0.23105  1.0000
  H   H924      1.0  0.54659  0.91038  0.32454  1.0000
  H   H925      1.0  0.67426  0.94182  0.27763  1.0000
  H   H926      1.0  0.97093  0.74707  0.29285  1.0000
  H   H927      1.0  0.86315  0.51074  0.08815  1.0000
  H   H928      1.0  0.54971  0.98998  0.10266  1.0000
  H   H929      1.0  0.80929  0.49907  0.16986  1.0000
  H   H930      1.0  0.57039  0.83057  0.30840  1.0000
  C   C520      1.0  0.97023  0.85772  0.23945  1.0000
  H   H931      1.0  0.92804  0.51951  0.15003  1.0000
  H   H932      1.0  0.97347  0.50234  0.01647  1.0000
  C   C521      1.0  0.57201  0.79835  0.32264  1.0000
  H   H933      1.0  0.54641  0.71088  0.33067  1.0000
  C   C522      1.0  0.90571  0.49854  0.13339  1.0000
  C   C523      1.0  0.94709  0.99381  0.25588  1.0000
  C   C524      1.0  0.98424  0.99436  0.27822  1.0000
  H   H934      1.0  0.60228  0.79870  0.33951  1.0000
  C   C525      1.0  0.55422  0.62089  0.34067  1.0000
  H   H935      1.0  0.54195  0.79532  0.33971  1.0000
  H   H936      1.0  0.62323  0.64070  0.33275  1.0000
  H   H937      1.0  0.60520  0.71708  0.33500  1.0000
  H   H938      1.0  0.81906  0.97692  0.01302  1.0000
  H   H939      1.0  0.98174  0.74926  0.48933  1.0000
  S   S120      1.0  0.84793  0.57039  0.45123  1.0000
  H   H940      1.0  0.98991  0.99484  0.55154  1.0000
  C   C526      1.0  0.90321  0.54183  0.65113  1.0000
  Fe  Fe63      1.0  0.73893  0.50316  0.36566  1.0000
  S   S121      1.0  0.80352  0.54018  0.35876  1.0000
  H   H941      1.0  0.87171  0.59775  0.62469  1.0000
  H   H942      1.0  0.96455  0.50456  0.37220  1.0000
  C   C527      1.0  0.59479  0.53602  0.46624  1.0000
  C   C528      1.0  0.86156  0.67191  0.35057  1.0000
  H   H943      1.0  0.95348  0.58430  0.35965  1.0000
  C   C529      1.0  0.97400  0.57551  0.38281  1.0000
  H   H944      1.0  0.58377  0.52594  0.49311  1.0000
  H   H945      1.0  0.54412  0.64881  0.35829  1.0000
  C   C530      1.0  0.88125  0.56259  0.61872  1.0000
  C   C531      1.0  0.89056  0.56309  0.48304  1.0000
  C   C532      1.0  0.89144  0.65589  0.38063  1.0000
  H   H946      1.0  0.63107  0.54351  0.46714  1.0000
  C   C533      1.0  0.93769  0.59574  0.52937  1.0000
  C   C534      1.0  0.90384  0.59998  0.50382  1.0000
  H   H947      1.0  0.88766  0.63199  0.50027  1.0000
  H   H948      1.0  0.51870  0.56876  0.51832  1.0000
  H   H949      1.0  0.88854  0.61884  0.38148  1.0000
  C   C535      1.0  0.94047  0.67107  0.37482  1.0000
  H   H950      1.0  0.85080  0.54357  0.61120  1.0000
  C   C536      1.0  0.91170  0.52190  0.48780  1.0000
  H   H951      1.0  0.94734  0.62427  0.54541  1.0000
  C   C537      1.0  0.96306  0.68669  0.43581  1.0000
  H   H952      1.0  0.95925  0.72263  0.42860  1.0000
  H   H953      1.0  0.95058  0.70288  0.50801  1.0000
  H   H954      1.0  0.90479  0.56284  0.59612  1.0000
  H   H955      1.0  0.98023  0.51735  0.41725  1.0000
  H   H956      1.0  0.86724  0.95974  0.35966  1.0000
  H   H957      1.0  0.93023  0.67692  0.44722  1.0000
  C   C538      1.0  0.96857  0.60980  0.41345  1.0000
  H   H958      1.0  0.87865  0.54325  0.67294  1.0000
  S   S122      1.0  0.67203  0.52340  0.34448  1.0000
  S   S123      1.0  0.99081  0.94666  0.37686  1.0000
  H   H959      1.0  0.52073  0.52069  0.42515  1.0000
  H   H960      1.0  0.92412  0.52831  0.40203  1.0000
  C   C539      1.0  0.95833  0.55435  0.53456  1.0000
  C   C540      1.0  0.94519  0.51751  0.51362  1.0000
  H   H961      1.0  0.93601  0.60371  0.42666  1.0000
  C   C541      1.0  0.77960  0.53918  0.53197  1.0000
  N   N30       1.0  0.97303  0.65852  0.40351  1.0000
  C   C542      1.0  0.56718  0.58210  0.36460  1.0000
  H   H962      1.0  0.99102  0.91067  0.56044  1.0000
  H   H963      1.0  0.75380  0.53833  0.55303  1.0000
  Fe  Fe64      1.0  0.81926  0.51722  0.41410  1.0000
  C   C543      1.0  0.98030  0.94751  0.67388  1.0000
  H   H964      1.0  0.60069  0.50852  0.41415  1.0000
  H   H965      1.0  0.53863  0.57386  0.38209  1.0000
  H   H966      1.0  0.87799  0.66963  0.40574  1.0000
  C   C544      1.0  0.95991  0.52856  0.39443  1.0000
  H   H967      1.0  0.59615  0.59135  0.38142  1.0000
  H   H968      1.0  0.57685  0.56696  0.45838  1.0000
  H   H969      1.0  0.81165  0.55145  0.54318  1.0000
  C   C545      1.0  0.98354  0.71360  0.49754  1.0000
  H   H970      1.0  0.76889  0.56323  0.51132  1.0000
  H   H971      1.0  0.93216  0.56328  0.65839  1.0000
  H   H972      1.0  0.82678  0.66057  0.35538  1.0000
  H   H973      1.0  0.93978  0.70815  0.37142  1.0000
  H   H974      1.0  0.95168  0.65806  0.34869  1.0000
  H   H975      1.0  0.86192  0.70908  0.34901  1.0000
  S   S124      1.0  0.98400  0.81961  0.34201  1.0000
  H   H976      1.0  0.51119  0.51060  0.56480  1.0000
  H   H977      1.0  0.96771  0.94395  0.64648  1.0000
  H   H978      1.0  0.57578  0.55212  0.34857  1.0000
  C   C546      1.0  0.58594  0.49822  0.43979  1.0000
  H   H979      1.0  0.94740  0.49693  0.62446  1.0000
  C   C547      1.0  0.92009  0.59920  0.73467  1.0000
  H   H980      1.0  0.97397  0.60610  0.96131  1.0000
  H   H981      1.0  0.73056  0.51618  0.80399  1.0000
  H   H982      1.0  0.91333  0.94597  0.69550  1.0000
  H   H983      1.0  0.85821  0.55302  0.96305  1.0000
  H   H984      1.0  0.71427  0.55072  0.87609  1.0000
  H   H985      1.0  0.51444  0.52042  0.86305  1.0000
  C   C548      1.0  0.88460  0.55155  0.77897  1.0000
  H   H986      1.0  0.98321  0.98343  0.68053  1.0000
  S   S125      1.0  0.56284  0.50262  0.72664  1.0000
  S   S126      1.0  0.93738  0.96023  0.83318  1.0000
  C   C549      1.0  0.88422  0.59439  0.00553  1.0000
  H   H987      1.0  0.91763  0.61979  0.71130  1.0000
  H   H988      1.0  0.65516  0.55297  0.88355  1.0000
  H   H989      1.0  0.85926  0.62009  0.00228  1.0000
  C   C550      1.0  0.86078  0.59608  0.88405  1.0000
  C   C551      1.0  0.94372  0.59844  0.89649  1.0000
  H   H990      1.0  0.82887  0.61448  0.88693  1.0000
  H   H991      1.0  0.85026  0.58134  0.73498  1.0000
  C   C552      1.0  0.98207  0.63634  0.94534  1.0000
  S   S127      1.0  0.83611  0.52491  0.79533  1.0000
  N   N31       1.0  0.98497  0.62460  0.90656  1.0000
  H   H992      1.0  0.95337  0.64647  0.83679  1.0000
  C   C553      1.0  0.91581  0.52304  0.98686  1.0000
  H   H993      1.0  0.60452  0.53160  0.79499  1.0000
  H   H994      1.0  0.69726  0.54182  0.93906  1.0000
  C   C554      1.0  0.69704  0.53211  0.80273  1.0000
  H   H995      1.0  0.85826  0.56422  0.89889  1.0000
  H   H996      1.0  0.86602  0.58844  0.85559  1.0000
  C   C555      1.0  0.98740  0.70813  0.82686  1.0000
  C   C556      1.0  0.96089  0.59564  0.75227  1.0000
  C   C557      1.0  0.68443  0.53049  0.88320  1.0000
  H   H997      1.0  0.90015  0.65575  0.88265  1.0000
  C   C558      1.0  0.50403  0.61351  0.76570  1.0000
  C   C559      1.0  0.72640  0.57041  0.74761  1.0000
  H   H998      1.0  0.93856  0.89646  0.00125  1.0000
  C   C560      1.0  0.89912  0.62455  0.89839  1.0000
  H   H999      1.0  0.93944  0.56895  0.91413  1.0000
  C   C561      1.0  0.52188  0.53922  0.74353  1.0000
  H   H1000     1.0  0.96402  0.52270  0.70126  1.0000
  H   H1001     1.0  0.71812  0.58021  0.72011  1.0000
  C   C562      1.0  0.88194  0.57770  0.74828  1.0000
  H   H1002     1.0  0.73386  0.60124  0.76311  1.0000
  H   H1003     1.0  0.70095  0.56423  0.81748  1.0000
  H   H1004     1.0  0.96372  0.69234  0.89463  1.0000
  C   C563      1.0  0.94519  0.92752  0.69859  1.0000
  H   H1005     1.0  0.93928  0.89164  0.69217  1.0000
  H   H1006     1.0  0.98665  0.70353  0.79770  1.0000
  H   H1007     1.0  0.89105  0.63342  0.92619  1.0000
  H   H1008     1.0  0.62446  0.56348  0.83090  1.0000
  H   H1009     1.0  0.95380  0.65960  0.95023  1.0000
  H   H1010     1.0  0.68082  0.51508  0.74704  1.0000
  H   H1011     1.0  0.75656  0.54891  0.74689  1.0000
  H   H1012     1.0  0.65737  0.56692  0.76242  1.0000
  C   C564      1.0  0.68713  0.54497  0.76382  1.0000
  C   C565      1.0  0.92558  0.54752  0.79621  1.0000
  C   C566      1.0  0.96337  0.57004  0.78322  1.0000
  C   C567      1.0  0.61897  0.52831  0.82196  1.0000
  N   N32       1.0  0.66244  0.50299  0.82033  1.0000
  C   C568      1.0  0.53993  0.53575  0.84556  1.0000
  H   H1013     1.0  0.92801  0.52782  0.81996  1.0000
  C   C569      1.0  0.94252  0.99173  0.79417  1.0000
  C   C570      1.0  0.69073  0.51324  0.92087  1.0000
  C   C571      1.0  0.88366  0.55651  0.98307  1.0000
  H   H1014     1.0  0.95585  0.93067  0.72661  1.0000
  S   S128      1.0  0.99381  0.90065  0.91177  1.0000
  H   H1015     1.0  0.56744  0.59504  0.74352  1.0000
  H   H1016     1.0  0.94723  0.58384  0.86950  1.0000
  H   H1017     1.0  0.54725  0.57014  0.85538  1.0000
  C   C572      1.0  0.58203  0.50710  0.84534  1.0000
  C   C573      1.0  0.98889  0.66741  0.88563  1.0000
  C   C574      1.0  0.99117  0.84890  0.00560  1.0000
  C   C575      1.0  0.98523  0.66241  0.84484  1.0000
  H   H1018     1.0  0.95836  0.72894  0.83472  1.0000
  H   H1019     1.0  0.50346  0.59285  0.99351  1.0000
  C   C576      1.0  0.53428  0.58360  0.75035  1.0000
  H   H1020     1.0  0.52577  0.53782  0.81862  1.0000
  H   H1021     1.0  0.51398  0.64792  0.77032  1.0000
  H   H1022     1.0  0.97676  0.82668  0.98490  1.0000
  H   H1023     1.0  0.59305  0.50417  0.87317  1.0000
  H   H1024     1.0  0.98805  0.68940  0.00590  1.0000
