data_image0
_chemical_formula_structural       C2HFeSFeS2FeSFeS4C6HCH3C3H3CH13NH6CNHCHCH2CFeCH5CHSH2C3H4CHC3H3CH3CH5C6HCH3CH2CH7C2HCSH3CH7CH4FeS2FeS2FeHFeS3H4C4HCHC2H4C2HCH3CH3C3H6C2SH8CH2NC2HCHCH4CH2C2HCH3SH4C2SNCH2C3HCH4CH3NH5C2H3NC7SC2H2CH3CH2CH2CH8CHCHSH4CH2FeS2FeS2Fe2S3CHC2SH2C6H2C5H6CH2CSH2CH2CHC5H15C3H3C2NC4HC2H3CH4CH4CH8CH4FeC4HCH4SH3FeHCH2CH3CH5CFeS2FeS2FeSFeS3HCH4CH6C3H2C2H4NH3CHCH2CHC4H4CH2SCH6CHCH2C4H4C2H4CH2CNC10H18CH7CH3CH3SCH2NH2C5SH3FeSCH3NH2SC2SCFeCHC6H4CHSHC2HC2HCHCH4CH10SH2C5H2SH2CHCSH5NC3HC2HSC2NH3CHSH5CHCSC2H3C3H2SFeCHCNH6CH3CH3CHSFeH2FeH3SHCHCH2C2FeH3CSH2C2SH5C3H3CHSH2C4H2SC3H4NCH2C3HC4H3C2H12CH15CHCH3CFeCH2CHCH2FeH4CH5CHNC4HC5H2CH3CH3C3HNH2CHCHC2H2SHCH6FeH2CH4SHFeSCHCHS3HSHCS2HC6H8CHC3H3CH2FeH8CH4SH4CHCSHC3H2CH2SH2CHFeCHCH6CSFeH4NC2HC3HC2H3FeHCH5NH2CHSHC2HCH7CSCSH4SHC8H7C4H4C2H5CH6SHCH5CHNC12H20CH5S2H6C2SH3C2FeHFeH6CHC3H2CHC4H4C2HFeHCHNH2CFeH3FeH2FeHSFeS2HSHFeH2CSHC3HSHSH2CH2C6H4C2H4CH2C2H2CHNHC4HC6H10SCH2CH10NH13CHCSC4H5C2HC2H2SC2H2C3H3CFeCHC2HCSFe2SHFeSHFeHFeSHSHCSFeH4SCH3CHC4SFeH3FeC3HC2SCH8NC2SCHC3H5SH13CHCH3CHCHCH2CHC2H8C2HCSCH3CNC5HC2HC2H2CHCSCFeCHCH4C2FeHSFeSFeHSC2HSHFeCHC7H4C2HSHC2HSH2CHNC2H2C4HCHCSH7CHCH5CH3C3H2CH3C2HCNCNH4C2H6CHC2H8CH2CH2SCHCH2SCH4C2FeSH2CHCHC2FeHCH4SH2CFeH2FeS3CFeSFeHS2H3C3H4C2HSHCH5CHC7H4CH3C3HCH6C3H2NH2C2H4CHC3HNHSH2FeHC4H2CH5CNH4SC4NHC2HC2H3CFeCH14CFeHCHS2HCHSH5CH3CHSHC2HC
_chemical_formula_sum              "C576 H1024 Fe64 S128 N32"
_cell_length_a       27.7918
_cell_length_b       27.7959
_cell_length_c       27.6629
_cell_angle_alpha    90.322
_cell_angle_beta     89.5245
_cell_angle_gamma    86.7156

_space_group_name_H-M_alt    "P 1"
_space_group_IT_number       1

loop_
  _space_group_symop_operation_xyz
  'x, y, z'

loop_
  _atom_site_type_symbol
  _atom_site_label
  _atom_site_symmetry_multiplicity
  _atom_site_fract_x
  _atom_site_fract_y
  _atom_site_fract_z
  _atom_site_occupancy
  C   C1        1.0  0.23756  0.47827  0.23372  1.0000
  C   C2        1.0  0.08262  0.21651  0.36243  1.0000
  H   H1        1.0  0.26688  0.02432  0.46706  1.0000
  Fe  Fe1       1.0  0.27087  0.26836  0.25325  1.0000
  S   S1        1.0  0.21972  0.22989  0.30196  1.0000
  Fe  Fe2       1.0  0.19687  0.35152  0.23267  1.0000
  S   S2        1.0  0.14129  0.31964  0.27945  1.0000
  S   S3        1.0  0.17271  0.41957  0.19207  1.0000
  Fe  Fe3       1.0  0.20040  0.30380  0.33252  1.0000
  S   S4        1.0  0.17852  0.32699  0.40874  1.0000
  Fe  Fe4       1.0  0.16352  0.24834  0.24567  1.0000
  S   S5        1.0  0.09903  0.20353  0.23123  1.0000
  S   S6        1.0  0.25510  0.34114  0.28797  1.0000
  S   S7        1.0  0.21540  0.28110  0.19440  1.0000
  S   S8        1.0  0.08090  0.06862  0.04709  1.0000
  C   C3        1.0  0.09364  0.16824  0.17850  1.0000
  C   C4        1.0  0.04953  0.14789  0.16874  1.0000
  C   C5        1.0  0.04451  0.11818  0.12788  1.0000
  C   C6        1.0  0.08393  0.10806  0.09704  1.0000
  C   C7        1.0  0.12796  0.12843  0.10682  1.0000
  C   C8        1.0  0.13269  0.15887  0.14706  1.0000
  H   H2        1.0  0.01915  0.15522  0.19286  1.0000
  C   C9        1.0  0.21266  0.46375  0.35033  1.0000
  H   H3        1.0  0.15861  0.12059  0.08329  1.0000
  H   H4        1.0  0.16670  0.17448  0.15426  1.0000
  H   H5        1.0  0.19169  0.05905  0.46864  1.0000
  C   C10       1.0  0.19236  0.29196  0.46041  1.0000
  C   C11       1.0  0.22636  0.25302  0.45829  1.0000
  C   C12       1.0  0.15846  0.47050  0.35770  1.0000
  H   H6        1.0  0.24363  0.24338  0.42422  1.0000
  H   H7        1.0  0.09759  0.49382  0.21537  1.0000
  H   H8        1.0  0.09557  0.39142  0.34563  1.0000
  C   C13       1.0  0.20008  0.47484  0.20100  1.0000
  H   H9        1.0  0.08392  0.39987  0.43446  1.0000
  H   H10       1.0  0.22648  0.13309  0.43074  1.0000
  H   H11       1.0  0.25143  0.44654  0.25231  1.0000
  H   H12       1.0  0.01627  0.20080  0.39654  1.0000
  H   H13       1.0  0.05583  0.27936  0.50076  1.0000
  H   H14       1.0  0.14441  0.33521  0.50698  1.0000
  H   H15       1.0  0.17383  0.04092  0.40899  1.0000
  H   H16       1.0  0.30677  0.10079  0.34249  1.0000
  H   H17       1.0  0.27293  0.17436  0.37716  1.0000
  H   H18       1.0  0.06660  0.42226  0.26557  1.0000
  H   H19       1.0  0.12487  0.11784  0.40003  1.0000
  H   H20       1.0  0.24112  0.06536  0.23491  1.0000
  H   H21       1.0  0.23004  0.45821  0.38597  1.0000
  N   N1        1.0  0.07611  0.48342  0.31312  1.0000
  H   H22       1.0  0.34351  0.34127  0.20571  1.0000
  H   H23       1.0  0.22159  0.43135  0.32801  1.0000
  H   H24       1.0  0.23496  0.13065  0.23276  1.0000
  H   H25       1.0  0.25856  0.38037  0.05160  1.0000
  H   H26       1.0  0.08457  0.18326  0.33987  1.0000
  H   H27       1.0  0.10368  0.20959  0.39590  1.0000
  C   C14       1.0  0.32970  0.38182  0.12209  1.0000
  N   N2        1.0  0.27278  0.07188  0.40587  1.0000
  H   H28       1.0  0.26644  0.43338  0.12334  1.0000
  C   C15       1.0  0.03041  0.23104  0.37592  1.0000
  H   H29       1.0  0.06603  0.41961  0.17734  1.0000
  C   C16       1.0  0.27507  0.39411  0.12721  1.0000
  H   H30       1.0  0.22850  0.00448  0.02293  1.0000
  H   H31       1.0  0.21171  0.09499  0.18460  1.0000
  C   C17       1.0  0.05277  0.46050  0.27006  1.0000
  Fe  Fe5       1.0  0.02234  0.01134  0.47181  1.0000
  C   C18       1.0  0.26704  0.02864  0.37331  1.0000
  H   H32       1.0  0.21279  0.11164  0.37262  1.0000
  H   H33       1.0  0.31211  0.42472  0.47117  1.0000
  H   H34       1.0  0.03206  0.39065  0.33708  1.0000
  H   H35       1.0  0.32550  0.07807  0.25034  1.0000
  H   H36       1.0  0.24306  0.00280  0.39049  1.0000
  C   C19       1.0  0.22435  0.09943  0.40930  1.0000
  H   H37       1.0  0.32661  0.03588  0.45119  1.0000
  S   S9        1.0  0.34463  0.23670  0.22681  1.0000
  H   H38       1.0  0.02114  0.08174  0.26639  1.0000
  H   H39       1.0  0.32536  0.00686  0.21581  1.0000
  C   C20       1.0  0.13036  0.47413  0.30933  1.0000
  C   C21       1.0  0.24700  0.36889  0.08811  1.0000
  C   C22       1.0  0.23382  0.04322  0.01712  1.0000
  H   H40       1.0  0.10725  0.08476  0.45224  1.0000
  H   H41       1.0  0.24133  0.20219  0.01197  1.0000
  H   H42       1.0  0.22695  0.49624  0.33367  1.0000
  H   H43       1.0  0.31314  0.46400  0.17754  1.0000
  C   C23       1.0  0.13667  0.10502  0.43622  1.0000
  H   H44       1.0  0.01930  0.40075  0.42673  1.0000
  C   C24       1.0  0.29729  0.38949  0.46313  1.0000
  C   C25       1.0  0.29248  0.09102  0.49560  1.0000
  C   C26       1.0  0.28979  0.05341  0.45439  1.0000
  H   H45       1.0  0.20792  0.37891  0.09251  1.0000
  H   H46       1.0  0.03083  0.26282  0.40013  1.0000
  H   H47       1.0  0.28755  0.13004  0.15963  1.0000
  C   C27       1.0  0.24151  0.09721  0.21087  1.0000
  H   H48       1.0  0.29355  0.34239  0.40014  1.0000
  H   H49       1.0  0.21588  0.26161  0.02582  1.0000
  H   H50       1.0  0.31582  0.39632  0.22377  1.0000
  C   C28       1.0  0.30968  0.10274  0.38259  1.0000
  H   H51       1.0  0.01967  0.26452  0.30618  1.0000
  H   H52       1.0  0.33428  0.34180  0.12196  1.0000
  H   H53       1.0  0.13975  0.43963  0.28995  1.0000
  H   H54       1.0  0.25736  0.39435  0.46523  1.0000
  H   H55       1.0  0.29391  0.06525  0.16067  1.0000
  C   C29       1.0  0.33234  0.10145  0.21904  1.0000
  C   C30       1.0  0.28957  0.09808  0.18367  1.0000
  C   C31       1.0  0.18255  0.07211  0.43184  1.0000
  C   C32       1.0  0.17087  0.30511  0.50511  1.0000
  C   C33       1.0  0.31083  0.37585  0.41096  1.0000
  C   C34       1.0  0.06021  0.40581  0.35976  1.0000
  H   H56       1.0  0.22358  0.06275  0.05115  1.0000
  C   C35       1.0  0.05531  0.46166  0.35789  1.0000
  H   H57       1.0  0.29605  0.31708  0.49007  1.0000
  H   H58       1.0  0.34100  0.39362  0.08546  1.0000
  H   H59       1.0  0.26245  0.38194  0.16292  1.0000
  C   C36       1.0  0.31644  0.34949  0.49826  1.0000
  H   H60       1.0  0.04980  0.47342  0.14401  1.0000
  H   H61       1.0  0.07177  0.47587  0.39108  1.0000
  C   C37       1.0  0.30588  0.15756  0.39384  1.0000
  H   H62       1.0  0.32314  0.11407  0.48912  1.0000
  H   H63       1.0  0.09920  0.24591  0.34245  1.0000
  H   H64       1.0  0.24900  0.04015  0.33904  1.0000
  H   H65       1.0  0.22091  0.00418  0.14306  1.0000
  H   H66       1.0  0.29842  0.40520  0.38632  1.0000
  H   H67       1.0  0.05685  0.34748  0.41119  1.0000
  H   H68       1.0  0.25245  0.32914  0.09122  1.0000
  C   C38       1.0  0.05455  0.38750  0.41122  1.0000
  C   C39       1.0  0.04416  0.45433  0.17861  1.0000
  H   H69       1.0  0.33993  0.02109  0.33962  1.0000
  C   C40       1.0  0.05955  0.48558  0.22076  1.0000
  S   S10       1.0  0.01346  0.18841  0.49769  1.0000
  H   H70       1.0  0.01621  0.47248  0.36140  1.0000
  H   H71       1.0  0.26718  0.19935  0.49942  1.0000
  H   H72       1.0  0.33025  0.13859  0.23440  1.0000
  C   C41       1.0  0.23948  0.22810  0.50072  1.0000
  H   H73       1.0  0.14247  0.13656  0.45993  1.0000
  H   H74       1.0  0.14792  0.43964  0.37979  1.0000
  H   H75       1.0  0.33975  0.47601  0.09050  1.0000
  H   H76       1.0  0.30423  0.16499  0.43293  1.0000
  H   H77       1.0  0.34439  0.41693  0.30545  1.0000
  H   H78       1.0  0.25861  0.11371  0.49952  1.0000
  H   H79       1.0  0.34434  0.22217  0.38165  1.0000
  C   C42       1.0  0.01718  0.28643  0.50366  1.0000
  H   H80       1.0  0.02189  0.36364  0.50487  1.0000
  H   H81       1.0  0.27254  0.04785  0.00897  1.0000
  H   H82       1.0  0.23479  0.33740  0.61987  1.0000
  H   H83       1.0  0.03511  0.38469  0.72091  1.0000
  Fe  Fe6       1.0  0.24176  0.31900  0.75070  1.0000
  S   S11       1.0  0.29591  0.26896  0.71183  1.0000
  S   S12       1.0  0.24848  0.39579  0.77745  1.0000
  Fe  Fe7       1.0  0.17335  0.24046  0.76767  1.0000
  S   S13       1.0  0.22123  0.18377  0.73096  1.0000
  S   S14       1.0  0.10452  0.22597  0.80732  1.0000
  Fe  Fe8       1.0  0.28251  0.21506  0.77014  1.0000
  H   H84       1.0  0.07983  0.09014  0.69776  1.0000
  Fe  Fe9       1.0  0.23185  0.24011  0.67449  1.0000
  S   S15       1.0  0.23974  0.21095  0.59779  1.0000
  S   S16       1.0  0.23357  0.26704  0.81209  1.0000
  S   S17       1.0  0.17879  0.29476  0.70840  1.0000
  H   H85       1.0  0.09324  0.43269  0.76510  1.0000
  H   H86       1.0  0.23877  0.35356  0.94802  1.0000
  H   H87       1.0  0.11644  0.14513  0.98586  1.0000
  H   H88       1.0  0.20971  0.07375  0.61585  1.0000
  C   C43       1.0  0.22346  0.03321  0.68206  1.0000
  C   C44       1.0  0.21874  0.24165  0.54551  1.0000
  C   C45       1.0  0.18409  0.28013  0.54762  1.0000
  C   C46       1.0  0.12816  0.01958  0.62979  1.0000
  H   H89       1.0  0.16764  0.29083  0.58188  1.0000
  C   C47       1.0  0.20538  0.11664  0.96887  1.0000
  H   H90       1.0  0.20998  0.09311  0.78868  1.0000
  C   C48       1.0  0.30133  0.06645  0.54421  1.0000
  C   C49       1.0  0.12217  0.15916  0.63697  1.0000
  H   H91       1.0  0.14115  0.03316  0.55191  1.0000
  H   H92       1.0  0.13628  0.10495  0.58242  1.0000
  H   H93       1.0  0.08000  0.10123  0.61351  1.0000
  H   H94       1.0  0.16803  0.37005  0.83425  1.0000
  C   C50       1.0  0.08351  0.16749  0.91824  1.0000
  C   C51       1.0  0.19601  0.40625  0.62327  1.0000
  H   H95       1.0  0.27140  0.04313  0.55311  1.0000
  C   C52       1.0  0.07446  0.37564  0.71916  1.0000
  H   H96       1.0  0.11018  0.44521  0.93849  1.0000
  H   H97       1.0  0.09019  0.24570  0.70618  1.0000
  H   H98       1.0  0.11494  0.19093  0.56503  1.0000
  C   C53       1.0  0.12134  0.13628  0.94682  1.0000
  H   H99       1.0  0.08039  0.33619  0.71472  1.0000
  H   H100      1.0  0.01671  0.25756  0.65697  1.0000
  H   H101      1.0  0.13694  0.10194  0.72185  1.0000
  C   C54       1.0  0.24052  0.44824  0.74185  1.0000
  C   C55       1.0  0.27889  0.46296  0.71375  1.0000
  C   C56       1.0  0.09804  0.19480  0.60150  1.0000
  H   H102      1.0  0.31073  0.43929  0.70940  1.0000
  H   H103      1.0  0.26084  0.42218  0.55466  1.0000
  H   H104      1.0  0.16487  0.05229  0.98331  1.0000
  H   H105      1.0  0.08100  0.33039  0.80570  1.0000
  H   H106      1.0  0.08835  0.01859  0.62630  1.0000
  H   H107      1.0  0.02990  0.30704  0.86331  1.0000
  C   C57       1.0  0.27772  0.03863  0.67710  1.0000
  C   C58       1.0  0.05185  0.23302  0.77220  1.0000
  S   S18       1.0  0.03286  0.47741  0.56274  1.0000
  H   H108      1.0  0.20266  0.44520  0.62125  1.0000
  H   H109      1.0  0.14262  0.32100  0.86254  1.0000
  H   H110      1.0  0.06760  0.45678  0.83781  1.0000
  H   H111      1.0  0.12986  0.06078  0.80276  1.0000
  H   H112      1.0  0.24452  0.35675  0.88321  1.0000
  H   H113      1.0  0.29396  0.28990  0.56981  1.0000
  H   H114      1.0  0.26839  0.38512  0.64317  1.0000
  H   H115      1.0  0.27190  0.07609  0.80193  1.0000
  C   C59       1.0  0.19428  0.07217  0.65301  1.0000
  H   H116      1.0  0.21478  0.04163  0.94219  1.0000
  H   H117      1.0  0.05550  0.47372  0.91807  1.0000
  N   N3        1.0  0.17317  0.13955  0.93087  1.0000
  C   C60       1.0  0.17949  0.11387  0.88281  1.0000
  C   C61       1.0  0.11770  0.07466  0.70092  1.0000
  H   H118      1.0  0.15200  0.21108  0.99657  1.0000
  C   C62       1.0  0.04795  0.31674  0.89735  1.0000
  H   H119      1.0  0.28713  0.07570  0.68717  1.0000
  C   C63       1.0  0.23161  0.10909  0.86213  1.0000
  H   H120      1.0  0.13755  0.38312  0.76214  1.0000
  H   H121      1.0  0.33584  0.04420  0.54365  1.0000
  H   H122      1.0  0.13135  0.44927  0.84038  1.0000
  H   H123      1.0  0.02503  0.12189  0.93301  1.0000
  C   C64       1.0  0.23452  0.07757  0.81671  1.0000
  H   H124      1.0  0.15732  0.13302  0.85476  1.0000
  H   H125      1.0  0.16539  0.07722  0.88474  1.0000
  C   C65       1.0  0.09939  0.04400  0.78504  1.0000
  C   C66       1.0  0.28441  0.49767  0.00427  1.0000
  H   H126      1.0  0.16638  0.20796  0.89380  1.0000
  C   C67       1.0  0.34583  0.13594  0.93783  1.0000
  H   H127      1.0  0.16808  0.46560  0.99068  1.0000
  H   H128      1.0  0.18152  0.39901  0.65988  1.0000
  H   H129      1.0  0.21457  0.03728  0.72096  1.0000
  S   S19       1.0  0.34371  0.47919  0.98402  1.0000
  H   H130      1.0  0.24353  0.14501  0.85165  1.0000
  H   H131      1.0  0.25739  0.09266  0.88844  1.0000
  H   H132      1.0  0.31258  0.19044  0.89117  1.0000
  H   H133      1.0  0.08094  0.29287  0.90154  1.0000
  C   C68       1.0  0.01345  0.30632  0.93883  1.0000
  C   C69       1.0  0.05531  0.24316  0.72301  1.0000
  S   S20       1.0  0.03759  0.06093  0.53313  1.0000
  N   N4        1.0  0.31328  0.36123  0.55167  1.0000
  C   C70       1.0  0.24526  0.47209  0.98821  1.0000
  H   H134      1.0  0.21665  0.30638  0.91083  1.0000
  H   H135      1.0  0.22472  0.04033  0.82506  1.0000
  C   C71       1.0  0.03285  0.16030  0.93710  1.0000
  C   C72       1.0  0.11287  0.02953  0.73307  1.0000
  C   C73       1.0  0.18616  0.19115  0.92483  1.0000
  H   H136      1.0  0.08422  0.15705  0.87953  1.0000
  C   C74       1.0  0.32259  0.31452  0.57858  1.0000
  H   H137      1.0  0.17949  0.41212  0.91142  1.0000
  H   H138      1.0  0.22453  0.19274  0.91369  1.0000
  H   H139      1.0  0.16003  0.16853  0.64063  1.0000
  H   H140      1.0  0.10204  0.23226  0.61433  1.0000
  C   C75       1.0  0.11904  0.10649  0.61883  1.0000
  H   H141      1.0  0.15136  0.36462  0.94420  1.0000
  H   H142      1.0  0.31979  0.31963  0.61817  1.0000
  H   H143      1.0  0.20245  0.10709  0.66947  1.0000
  N   N5        1.0  0.14054  0.06738  0.65125  1.0000
  H   H144      1.0  0.11047  0.09843  0.94390  1.0000
  H   H145      1.0  0.32328  0.43795  0.62451  1.0000
  H   H146      1.0  0.08969  0.20638  0.92161  1.0000
  H   H147      1.0  0.24373  0.12409  0.96198  1.0000
  H   H148      1.0  0.07311  0.37846  0.93427  1.0000
  C   C76       1.0  0.24285  0.37573  0.61475  1.0000
  C   C77       1.0  0.26312  0.38289  0.56289  1.0000
  H   H149      1.0  0.10393  0.16475  0.67247  1.0000
  H   H150      1.0  0.16858  0.39746  0.59608  1.0000
  H   H151      1.0  0.05894  0.18889  0.59873  1.0000
  N   N6        1.0  0.09496  0.38540  0.85899  1.0000
  C   C78       1.0  0.07585  0.37015  0.81055  1.0000
  C   C79       1.0  0.06007  0.37053  0.89753  1.0000
  C   C80       1.0  0.09769  0.43956  0.85905  1.0000
  C   C81       1.0  0.14435  0.36080  0.86489  1.0000
  C   C82       1.0  0.17194  0.37339  0.91121  1.0000
  C   C83       1.0  0.09841  0.39285  0.76498  1.0000
  C   C84       1.0  0.09396  0.46619  0.90852  1.0000
  S   S21       1.0  0.02700  0.01104  0.93896  1.0000
  C   C85       1.0  0.22092  0.34568  0.91332  1.0000
  C   C86       1.0  0.17753  0.22479  0.96981  1.0000
  H   H152      1.0  0.23630  0.36696  0.53885  1.0000
  H   H153      1.0  0.25190  0.44134  0.96452  1.0000
  C   C87       1.0  0.20232  0.06152  0.97528  1.0000
  H   H154      1.0  0.08992  0.39336  0.68715  1.0000
  H   H155      1.0  0.17111  0.47021  0.77222  1.0000
  H   H156      1.0  0.06773  0.07025  0.78576  1.0000
  C   C88       1.0  0.20038  0.48051  0.74954  1.0000
  H   H157      1.0  0.29002  0.03052  0.63956  1.0000
  H   H158      1.0  0.16073  0.25979  0.95739  1.0000
  C   C89       1.0  0.01361  0.24996  0.69518  1.0000
  H   H159      1.0  0.25029  0.25119  0.97097  1.0000
  H   H160      1.0  0.30328  0.09432  0.57301  1.0000
  C   C90       1.0  0.22418  0.23536  0.99604  1.0000
  H   H161      1.0  0.30920  0.48754  0.86519  1.0000
  H   H162      1.0  0.03626  0.37833  0.80911  1.0000
  H   H163      1.0  0.33029  0.15180  0.97062  1.0000
  H   H164      1.0  0.02534  0.39231  0.89396  1.0000
  H   H165      1.0  0.02920  0.17116  0.97574  1.0000
  H   H166      1.0  0.03037  0.31319  0.97427  1.0000
  H   H167      1.0  0.19661  0.13345  0.00471  1.0000
  H   H168      1.0  0.01399  0.40969  0.64071  1.0000
  C   C91       1.0  0.33560  0.15779  0.89291  1.0000
  H   H169      1.0  0.34368  0.42064  0.80957  1.0000
  C   C92       1.0  0.19757  0.48606  0.00249  1.0000
  H   H170      1.0  0.34317  0.43056  0.54239  1.0000
  S   S22       1.0  0.34516  0.16365  0.79295  1.0000
  H   H171      1.0  0.08389  0.00771  0.71863  1.0000
  H   H172      1.0  0.29738  0.01272  0.70135  1.0000
  H   H173      1.0  0.09027  0.01167  0.80590  1.0000
  H   H174      1.0  0.19128  0.00321  0.58231  1.0000
  C   C93       1.0  0.15141  0.00623  0.57987  1.0000
  H   H175      1.0  0.14614  0.00586  0.73414  1.0000
  H   H176      1.0  0.07341  0.63726  0.32033  1.0000
  Fe  Fe10      1.0  0.23006  0.77929  0.14200  1.0000
  S   S23       1.0  0.29758  0.74091  0.16976  1.0000
  S   S24       1.0  0.21172  0.80811  0.06727  1.0000
  Fe  Fe11      1.0  0.18076  0.78487  0.24157  1.0000
  S   S25       1.0  0.24413  0.74692  0.27725  1.0000
  S   S26       1.0  0.10936  0.80874  0.27809  1.0000
  Fe  Fe12      1.0  0.29021  0.79341  0.23190  1.0000
  Fe  Fe13      1.0  0.24695  0.69685  0.21291  1.0000
  S   S27       1.0  0.26724  0.61899  0.23110  1.0000
  S   S28       1.0  0.22634  0.83529  0.20138  1.0000
  S   S29       1.0  0.17997  0.73098  0.18028  1.0000
  C   C94       1.0  0.18833  0.52602  0.03281  1.0000
  H   H177      1.0  0.06608  0.63986  0.38497  1.0000
  C   C95       1.0  0.05683  0.61970  0.35183  1.0000
  C   C96       1.0  0.17269  0.66645  0.47138  1.0000
  S   S30       1.0  0.12884  0.54766  0.04954  1.0000
  H   H178      1.0  0.09152  0.61126  0.22006  1.0000
  H   H179      1.0  0.09161  0.65295  0.08108  1.0000
  C   C97       1.0  0.10462  0.85571  0.32187  1.0000
  C   C98       1.0  0.14522  0.87810  0.33844  1.0000
  C   C99       1.0  0.14015  0.91489  0.37369  1.0000
  C   C100      1.0  0.09453  0.92990  0.39252  1.0000
  C   C101      1.0  0.05387  0.90767  0.37581  1.0000
  C   C102      1.0  0.05898  0.87067  0.34070  1.0000
  H   H180      1.0  0.18055  0.86690  0.32431  1.0000
  H   H181      1.0  0.17179  0.93180  0.38649  1.0000
  C   C103      1.0  0.07659  0.56746  0.35598  1.0000
  C   C104      1.0  0.18351  0.52848  0.49369  1.0000
  C   C105      1.0  0.24002  0.56451  0.21841  1.0000
  C   C106      1.0  0.20280  0.56123  0.18507  1.0000
  C   C107      1.0  0.25768  0.52272  0.24212  1.0000
  H   H182      1.0  0.18970  0.59291  0.16560  1.0000
  H   H183      1.0  0.28701  0.52460  0.26739  1.0000
  H   H184      1.0  0.13759  0.97862  0.04042  1.0000
  H   H185      1.0  0.07717  0.96724  0.02282  1.0000
  H   H186      1.0  0.11727  0.74418  0.46887  1.0000
  H   H187      1.0  0.21995  0.53463  0.42513  1.0000
  C   C108      1.0  0.06215  0.53681  0.31215  1.0000
  H   H188      1.0  0.14649  0.50228  0.28692  1.0000
  H   H189      1.0  0.28950  0.73638  0.04210  1.0000
  C   C109      1.0  0.27517  0.53730  0.03488  1.0000
  S   S31       1.0  0.09057  0.97609  0.43712  1.0000
  H   H190      1.0  0.09668  0.60654  0.15545  1.0000
  H   H191      1.0  0.08484  0.82865  0.47712  1.0000
  C   C110      1.0  0.08385  0.69240  0.07743  1.0000
  H   H192      1.0  0.06037  0.96317  0.19428  1.0000
  H   H193      1.0  0.09821  0.66469  0.18464  1.0000
  C   C111      1.0  0.34627  0.54013  0.13373  1.0000
  H   H194      1.0  0.28062  0.93113  0.34510  1.0000
  C   C112      1.0  0.18323  0.51636  0.17608  1.0000
  C   C113      1.0  0.27072  0.53209  0.48326  1.0000
  C   C114      1.0  0.20872  0.67329  0.42893  1.0000
  C   C115      1.0  0.19501  0.64517  0.38393  1.0000
  C   C116      1.0  0.33569  0.73576  0.37470  1.0000
  H   H195      1.0  0.30434  0.55884  0.04543  1.0000
  H   H196      1.0  0.13570  0.66348  0.45671  1.0000
  H   H197      1.0  0.03236  0.77118  0.14802  1.0000
  H   H198      1.0  0.21080  0.71126  0.41788  1.0000
  H   H199      1.0  0.24548  0.66008  0.44004  1.0000
  H   H200      1.0  0.16041  0.66048  0.36919  1.0000
  H   H201      1.0  0.22329  0.64765  0.35555  1.0000
  H   H202      1.0  0.19121  0.60668  0.39250  1.0000
  H   H203      1.0  0.28622  0.96907  0.29257  1.0000
  H   H204      1.0  0.30643  0.54551  0.13672  1.0000
  H   H205      1.0  0.34594  0.97136  0.04998  1.0000
  H   H206      1.0  0.33873  0.75070  0.41175  1.0000
  H   H207      1.0  0.02636  0.91099  0.18312  1.0000
  H   H208      1.0  0.03780  0.81760  0.19316  1.0000
  H   H209      1.0  0.03350  0.85134  0.11171  1.0000
  C   C117      1.0  0.02685  0.63603  0.18078  1.0000
  C   C118      1.0  0.03458  0.94707  0.16935  1.0000
  C   C119      1.0  0.22427  0.53160  0.46368  1.0000
  H   H210      1.0  0.07882  0.55373  0.28032  1.0000
  H   H211      1.0  0.28808  0.57637  0.36697  1.0000
  H   H212      1.0  0.31873  0.64095  0.31753  1.0000
  C   C120      1.0  0.11740  0.83749  0.49766  1.0000
  C   C121      1.0  0.15090  0.75089  0.48898  1.0000
  N   N7        1.0  0.10408  0.91696  0.11201  1.0000
  C   C122      1.0  0.14105  0.94866  0.13325  1.0000
  C   C123      1.0  0.05533  0.94319  0.11723  1.0000
  C   C124      1.0  0.10565  0.86979  0.13895  1.0000
  C   C125      1.0  0.11383  0.90642  0.05919  1.0000
  H   H213      1.0  0.03710  0.51989  0.21940  1.0000
  C   C126      1.0  0.19443  0.93550  0.11957  1.0000
  C   C127      1.0  0.06820  0.83353  0.12257  1.0000
  H   H214      1.0  0.02743  0.85353  0.32811  1.0000
  H   H215      1.0  0.04441  0.70006  0.07432  1.0000
  H   H216      1.0  0.14446  0.85122  0.47216  1.0000
  C   C128      1.0  0.22842  0.96504  0.14937  1.0000
  H   H217      1.0  0.22113  0.58184  0.07323  1.0000
  H   H218      1.0  0.13841  0.94856  0.17345  1.0000
  H   H219      1.0  0.13360  0.98709  0.12292  1.0000
  H   H220      1.0  0.15195  0.50328  0.37921  1.0000
  C   C129      1.0  0.32559  0.58710  0.37207  1.0000
  H   H221      1.0  0.10229  0.87606  0.17869  1.0000
  H   H222      1.0  0.14156  0.85059  0.13467  1.0000
  H   H223      1.0  0.14842  0.88506  0.05443  1.0000
  H   H224      1.0  0.08613  0.88324  0.04412  1.0000
  C   C130      1.0  0.22761  0.55086  0.04971  1.0000
  H   H225      1.0  0.10076  0.75022  0.03083  1.0000
  H   H226      1.0  0.20385  0.89695  0.12554  1.0000
  H   H227      1.0  0.20151  0.94280  0.08089  1.0000
  H   H228      1.0  0.31920  0.70053  0.37737  1.0000
  H   H229      1.0  0.05647  0.98059  0.10314  1.0000
  H   H230      1.0  0.11624  0.56866  0.35778  1.0000
  H   H231      1.0  0.33276  0.98384  0.39170  1.0000
  H   H232      1.0  0.02233  0.54235  0.30806  1.0000
  C   C131      1.0  0.11430  0.95101  0.02605  1.0000
  H   H233      1.0  0.09659  0.71062  0.11026  1.0000
  H   H234      1.0  0.08288  0.81257  0.09090  1.0000
  H   H235      1.0  0.08958  0.77921  0.17575  1.0000
  H   H236      1.0  0.06205  0.55357  0.39010  1.0000
  Fe  Fe14      1.0  0.05224  0.53423  0.02496  1.0000
  C   C132      1.0  0.31435  0.99885  0.35926  1.0000
  C   C133      1.0  0.08158  0.62938  0.18567  1.0000
  C   C134      1.0  0.10991  0.71096  0.03334  1.0000
  C   C135      1.0  0.05638  0.79828  0.16242  1.0000
  H   H237      1.0  0.32595  0.61313  0.40262  1.0000
  C   C136      1.0  0.34360  0.60965  0.32554  1.0000
  H   H238      1.0  0.14912  0.70541  0.03997  1.0000
  H   H239      1.0  0.02849  0.92608  0.09439  1.0000
  H   H240      1.0  0.26629  0.95531  0.13871  1.0000
  H   H241      1.0  0.22433  0.95734  0.18852  1.0000
  S   S32       1.0  0.12570  0.53343  0.46734  1.0000
  H   H242      1.0  0.17607  0.76524  0.46198  1.0000
  H   H243      1.0  0.15483  0.51387  0.14982  1.0000
  H   H244      1.0  0.30170  0.53497  0.45981  1.0000
  Fe  Fe15      1.0  0.05322  0.52853  0.50449  1.0000
  H   H245      1.0  0.18236  0.63005  0.48562  1.0000
  C   C137      1.0  0.30402  0.95636  0.32633  1.0000
  H   H246      1.0  0.01862  0.65324  0.14552  1.0000
  H   H247      1.0  0.31178  0.76119  0.35385  1.0000
  C   C138      1.0  0.34083  0.93218  0.04605  1.0000
  H   H248      1.0  0.31787  0.92037  0.07623  1.0000
  H   H249      1.0  0.01862  0.91882  0.39012  1.0000
  H   H250      1.0  0.24376  0.72781  0.49961  1.0000
  C   C139      1.0  0.23835  0.78875  0.01195  1.0000
  H   H251      1.0  0.02127  0.70269  0.22069  1.0000
  H   H252      1.0  0.34088  0.58274  0.29604  1.0000
  H   H253      1.0  0.01708  0.65065  0.25719  1.0000
  H   H254      1.0  0.33847  0.93623  0.31639  1.0000
  H   H255      1.0  0.01696  0.62158  0.34849  1.0000
  C   C140      1.0  0.27511  0.75239  0.00928  1.0000
  Fe  Fe16      1.0  0.22232  0.67217  0.71500  1.0000
  S   S33       1.0  0.18804  0.69382  0.78638  1.0000
  S   S34       1.0  0.23855  0.60037  0.67727  1.0000
  Fe  Fe17      1.0  0.24997  0.77506  0.69113  1.0000
  S   S35       1.0  0.21860  0.80561  0.76090  1.0000
  S   S36       1.0  0.28153  0.80886  0.62409  1.0000
  Fe  Fe18      1.0  0.25172  0.73912  0.79611  1.0000
  S   S37       1.0  0.29623  0.73414  0.86441  1.0000
  Fe  Fe19      1.0  0.15639  0.75868  0.74669  1.0000
  S   S38       1.0  0.08264  0.79541  0.76066  1.0000
  S   S39       1.0  0.28858  0.71260  0.72756  1.0000
  S   S40       1.0  0.18522  0.73342  0.67456  1.0000
  H   H256      1.0  0.21610  0.99628  0.66998  1.0000
  C   C141      1.0  0.34317  0.86205  0.90478  1.0000
  H   H257      1.0  0.04929  0.61640  0.83775  1.0000
  H   H258      1.0  0.11115  0.78364  0.55197  1.0000
  H   H259      1.0  0.05522  0.70754  0.71238  1.0000
  H   H260      1.0  0.15880  0.52233  0.56720  1.0000
  C   C142      1.0  0.22054  0.80963  0.96912  1.0000
  H   H261      1.0  0.17092  0.80417  0.54403  1.0000
  H   H262      1.0  0.19248  0.83810  0.97108  1.0000
  H   H263      1.0  0.27185  0.96748  0.90418  1.0000
  H   H264      1.0  0.20868  0.61660  0.85963  1.0000
  H   H265      1.0  0.24054  0.52533  0.60182  1.0000
  H   H266      1.0  0.09559  0.95882  0.55778  1.0000
  C   C143      1.0  0.27335  0.75549  0.92091  1.0000
  C   C144      1.0  0.29285  0.73618  0.96385  1.0000
  C   C145      1.0  0.23764  0.79285  0.92379  1.0000
  H   H267      1.0  0.34240  0.63592  0.77836  1.0000
  H   H268      1.0  0.22411  0.80956  0.89106  1.0000
  C   C146      1.0  0.23783  0.54198  0.70224  1.0000
  C   C147      1.0  0.19879  0.52711  0.72951  1.0000
  H   H269      1.0  0.23552  0.66227  0.58788  1.0000
  H   H270      1.0  0.16775  0.55176  0.73572  1.0000
  H   H271      1.0  0.10111  0.53771  0.87820  1.0000
  H   H272      1.0  0.14657  0.92854  0.58768  1.0000
  N   N8        1.0  0.17163  0.70438  0.51081  1.0000
  H   H273      1.0  0.32174  0.64727  0.57527  1.0000
  H   H274      1.0  0.07943  0.86257  0.61376  1.0000
  H   H275      1.0  0.30726  0.52024  0.67169  1.0000
  C   C148      1.0  0.23620  0.52649  0.56320  1.0000
  H   H276      1.0  0.09363  0.87064  0.67661  1.0000
  C   C149      1.0  0.02404  0.72381  0.73119  1.0000
  H   H277      1.0  0.31066  0.88254  0.99680  1.0000
  H   H278      1.0  0.18848  0.89768  0.87982  1.0000
  C   C150      1.0  0.13840  0.69106  0.55166  1.0000
  H   H279      1.0  0.11504  0.53263  0.94180  1.0000
  C   C151      1.0  0.01850  0.85830  0.66351  1.0000
  C   C152      1.0  0.27730  0.50925  0.69348  1.0000
  C   C153      1.0  0.13824  0.63723  0.56629  1.0000
  C   C154      1.0  0.11226  0.63094  0.61463  1.0000
  H   H280      1.0  0.06178  0.91862  0.64453  1.0000
  H   H281      1.0  0.31197  0.84404  0.91970  1.0000
  H   H282      1.0  0.14594  0.71236  0.58451  1.0000
  H   H283      1.0  0.10014  0.70100  0.54237  1.0000
  C   C155      1.0  0.18978  0.52469  0.54356  1.0000
  H   H284      1.0  0.21981  0.74121  0.55777  1.0000
  H   H285      1.0  0.10896  0.91085  0.95878  1.0000
  S   S41       1.0  0.01775  0.59385  0.53996  1.0000
  C   C156      1.0  0.30515  0.58438  0.84633  1.0000
  H   H286      1.0  0.28097  0.94116  0.99848  1.0000
  H   H287      1.0  0.11924  0.61693  0.53835  1.0000
  H   H288      1.0  0.17472  0.62005  0.56967  1.0000
  H   H289      1.0  0.10910  0.59195  0.62183  1.0000
  H   H290      1.0  0.13302  0.64617  0.64460  1.0000
  H   H291      1.0  0.32130  0.70794  0.96212  1.0000
  C   C157      1.0  0.13539  0.95761  0.56203  1.0000
  H   H292      1.0  0.15699  0.50714  0.89800  1.0000
  C   C158      1.0  0.21468  0.57782  0.85062  1.0000
  H   H293      1.0  0.32262  0.86647  0.70043  1.0000
  H   H294      1.0  0.25435  0.59191  0.78658  1.0000
  C   C159      1.0  0.33688  0.87745  0.66596  1.0000
  C   C160      1.0  0.25876  0.91322  0.85005  1.0000
  C   C161      1.0  0.20376  0.91998  0.85101  1.0000
  C   C162      1.0  0.34127  0.86961  0.57882  1.0000
  H   H295      1.0  0.34256  0.97798  0.95269  1.0000
  H   H296      1.0  0.26875  0.87489  0.84132  1.0000
  H   H297      1.0  0.27138  0.93618  0.82035  1.0000
  H   H298      1.0  0.19210  0.95838  0.85757  1.0000
  C   C163      1.0  0.28026  0.92801  0.89923  1.0000
  C   C164      1.0  0.27673  0.53070  0.53325  1.0000
  H   H299      1.0  0.30492  0.56924  0.88354  1.0000
  H   H300      1.0  0.09871  0.64505  0.99301  1.0000
  H   H301      1.0  0.30723  0.71110  0.58018  1.0000
  H   H302      1.0  0.24818  0.63624  0.52873  1.0000
  C   C165      1.0  0.06617  0.87890  0.64843  1.0000
  H   H303      1.0  0.33012  0.85254  0.54585  1.0000
  H   H304      1.0  0.25895  0.90982  0.92729  1.0000
  C   C166      1.0  0.24997  0.66916  0.55121  1.0000
  N   N9        1.0  0.12053  0.69811  0.94141  1.0000
  C   C167      1.0  0.10333  0.66817  0.90019  1.0000
  C   C168      1.0  0.17414  0.68833  0.94606  1.0000
  C   C169      1.0  0.09461  0.68464  0.98688  1.0000
  C   C170      1.0  0.11070  0.75123  0.93243  1.0000
  C   C171      1.0  0.12491  0.76919  0.88158  1.0000
  C   C172      1.0  0.05027  0.67873  0.88517  1.0000
  C   C173      1.0  0.13244  0.93739  0.97527  1.0000
  C   C174      1.0  0.19100  0.63738  0.96376  1.0000
  C   C175      1.0  0.24586  0.62956  0.96039  1.0000
  C   C176      1.0  0.11495  0.82358  0.87745  1.0000
  H   H305      1.0  0.02577  0.66359  0.91202  1.0000
  H   H306      1.0  0.10661  0.62920  0.90908  1.0000
  H   H307      1.0  0.12681  0.67192  0.86787  1.0000
  H   H308      1.0  0.19224  0.69417  0.91075  1.0000
  H   H309      1.0  0.18944  0.71441  0.97123  1.0000
  H   H310      1.0  0.02546  0.81898  0.66789  1.0000
  H   H311      1.0  0.05519  0.69251  0.98314  1.0000
  H   H312      1.0  0.07213  0.76206  0.93886  1.0000
  H   H313      1.0  0.13004  0.77277  0.95922  1.0000
  H   H314      1.0  0.10435  0.75224  0.85268  1.0000
  H   H315      1.0  0.16338  0.76033  0.87369  1.0000
  H   H316      1.0  0.26277  0.64461  0.99296  1.0000
  H   H317      1.0  0.18283  0.56619  0.83062  1.0000
  H   H318      1.0  0.10676  0.86664  0.52383  1.0000
  H   H319      1.0  0.32057  0.68366  0.52150  1.0000
  H   H320      1.0  0.04002  0.71753  0.88187  1.0000
  H   H321      1.0  0.17489  0.60884  0.94234  1.0000
  H   H322      1.0  0.26063  0.64633  0.92762  1.0000
  C   C177      1.0  0.22148  0.71302  0.52902  1.0000
  H   H323      1.0  0.25596  0.59055  0.95810  1.0000
  H   H324      1.0  0.07549  0.83236  0.87664  1.0000
  H   H325      1.0  0.13070  0.84269  0.90819  1.0000
  H   H326      1.0  0.13091  0.83656  0.84338  1.0000
  H   H327      1.0  0.13142  0.96997  0.95220  1.0000
  H   H328      1.0  0.07546  0.64877  0.61430  1.0000
  H   H329      1.0  0.33580  0.50685  0.78119  1.0000
  C   C178      1.0  0.32274  0.85492  0.62347  1.0000
  H   H330      1.0  0.13865  0.98918  0.65394  1.0000
  H   H331      1.0  0.18906  0.90864  0.81577  1.0000
  H   H332      1.0  0.32559  0.58312  0.74891  1.0000
  C   C179      1.0  0.25973  0.56962  0.81939  1.0000
  H   H333      1.0  0.30013  0.62410  0.85109  1.0000
  H   H334      1.0  0.17020  0.92216  0.97650  1.0000
  H   H335      1.0  0.18028  0.63246  0.00205  1.0000
  S   S42       1.0  0.33391  0.53686  0.55921  1.0000
  C   C180      1.0  0.04104  0.65588  0.83641  1.0000
  H   H336      1.0  0.21863  0.55654  0.88429  1.0000
  H   H337      1.0  0.06391  0.67132  0.80800  1.0000
  N   N10       1.0  0.33359  0.91611  0.90624  1.0000
  H   H338      1.0  0.26253  0.53111  0.80900  1.0000
  H   H339      1.0  0.15228  0.94894  0.52627  1.0000
  C   C181      1.0  0.30317  0.67869  0.55725  1.0000
  C   C182      1.0  0.02811  0.76589  0.75836  1.0000
  C   C183      1.0  0.13841  0.79330  0.52470  1.0000
  C   C184      1.0  0.31684  0.92159  0.99816  1.0000
  C   C185      1.0  0.11813  0.51404  0.90626  1.0000
  S   S43       1.0  0.02057  0.57757  0.96328  1.0000
  H   H340      1.0  0.34635  0.84909  0.86663  1.0000
  H   H341      1.0  0.59509  0.22591  0.10570  1.0000
  H   H342      1.0  0.62531  0.19154  0.48603  1.0000
  Fe  Fe20      1.0  0.63146  0.25974  0.26226  1.0000
  S   S44       1.0  0.55690  0.29102  0.28482  1.0000
  C   C186      1.0  0.64181  0.15582  0.47592  1.0000
  H   H343      1.0  0.42962  0.19183  0.09810  1.0000
  H   H344      1.0  0.64341  0.31073  0.10447  1.0000
  H   H345      1.0  0.37958  0.09355  0.30141  1.0000
  N   N11       1.0  0.38171  0.08972  0.19750  1.0000
  H   H346      1.0  0.56850  0.17937  0.03881  1.0000
  H   H347      1.0  0.56405  0.05646  0.27146  1.0000
  S   S45       1.0  0.54069  0.05091  0.44389  1.0000
  C   C187      1.0  0.60765  0.18485  0.04153  1.0000
  C   C188      1.0  0.50909  0.48341  0.19849  1.0000
  S   S46       1.0  0.41274  0.45515  0.47012  1.0000
  C   C189      1.0  0.35091  0.45574  0.16612  1.0000
  Fe  Fe21      1.0  0.48569  0.44973  0.50333  1.0000
  C   C190      1.0  0.37004  0.38530  0.29926  1.0000
  H   H348      1.0  0.45005  0.09580  0.35535  1.0000
  C   C191      1.0  0.49939  0.26975  0.27106  1.0000
  C   C192      1.0  0.49070  0.24610  0.22752  1.0000
  C   C193      1.0  0.44329  0.23573  0.21501  1.0000
  C   C194      1.0  0.40406  0.24784  0.24615  1.0000
  C   C195      1.0  0.41324  0.26844  0.29108  1.0000
  C   C196      1.0  0.46041  0.28043  0.30294  1.0000
  H   H349      1.0  0.52026  0.23727  0.20280  1.0000
  H   H350      1.0  0.43692  0.21932  0.18043  1.0000
  H   H351      1.0  0.38398  0.27588  0.31644  1.0000
  H   H352      1.0  0.46658  0.29858  0.33682  1.0000
  C   C197      1.0  0.38686  0.12137  0.15359  1.0000
  H   H353      1.0  0.47463  0.15198  0.06929  1.0000
  S   S47       1.0  0.45832  0.16975  0.47306  1.0000
  H   H354      1.0  0.61873  0.47688  0.29861  1.0000
  C   C198      1.0  0.62585  0.33697  0.40588  1.0000
  C   C199      1.0  0.61862  0.41960  0.37819  1.0000
  H   H355      1.0  0.64212  0.31219  0.43257  1.0000
  C   C200      1.0  0.54062  0.02665  0.27213  1.0000
  C   C201      1.0  0.57119  0.32844  0.40566  1.0000
  H   H356      1.0  0.67039  0.14220  0.06846  1.0000
  C   C202      1.0  0.56319  0.27435  0.40616  1.0000
  H   H357      1.0  0.44010  0.15050  0.32106  1.0000
  C   C203      1.0  0.45378  0.26893  0.46838  1.0000
  H   H358      1.0  0.63996  0.32451  0.36991  1.0000
  H   H359      1.0  0.63486  0.10599  0.41532  1.0000
  H   H360      1.0  0.57868  0.42349  0.38191  1.0000
  H   H361      1.0  0.58043  0.41367  0.46354  1.0000
  C   C204      1.0  0.45055  0.11139  0.31846  1.0000
  H   H362      1.0  0.63259  0.16880  0.39938  1.0000
  H   H363      1.0  0.55426  0.34457  0.37290  1.0000
  H   H364      1.0  0.55200  0.34471  0.43740  1.0000
  H   H365      1.0  0.42819  0.02684  0.17896  1.0000
  H   H366      1.0  0.37657  0.15960  0.16299  1.0000
  H   H367      1.0  0.51712  0.44922  0.31693  1.0000
  H   H368      1.0  0.42492  0.04659  0.28763  1.0000
  H   H369      1.0  0.58633  0.25465  0.37880  1.0000
  H   H370      1.0  0.57139  0.25914  0.44240  1.0000
  H   H371      1.0  0.52513  0.26825  0.39756  1.0000
  S   S48       1.0  0.65484  0.23494  0.18828  1.0000
  H   H372      1.0  0.66096  0.02394  0.05790  1.0000
  H   H373      1.0  0.36164  0.11139  0.12462  1.0000
  C   C205      1.0  0.41276  0.39170  0.14538  1.0000
  C   C206      1.0  0.63069  0.14002  0.06577  1.0000
  C   C207      1.0  0.52335  0.01007  0.31641  1.0000
  C   C208      1.0  0.42971  0.33736  0.14334  1.0000
  C   C209      1.0  0.43424  0.31752  0.09175  1.0000
  H   H374      1.0  0.37189  0.46967  0.19615  1.0000
  H   H375      1.0  0.66338  0.25895  0.48903  1.0000
  S   S49       1.0  0.46932  0.44051  0.02789  1.0000
  H   H376      1.0  0.43766  0.41063  0.16926  1.0000
  H   H377      1.0  0.41953  0.40737  0.10942  1.0000
  C   C210      1.0  0.34873  0.18302  0.37325  1.0000
  H   H378      1.0  0.45069  0.34669  0.46277  1.0000
  C   C211      1.0  0.58686  0.35393  0.16901  1.0000
  S   S50       1.0  0.54117  0.03422  0.17412  1.0000
  H   H379      1.0  0.40576  0.31428  0.16363  1.0000
  H   H380      1.0  0.46553  0.33270  0.16080  1.0000
  H   H381      1.0  0.44816  0.27937  0.09293  1.0000
  H   H382      1.0  0.39893  0.31883  0.07337  1.0000
  H   H383      1.0  0.45929  0.33866  0.07031  1.0000
  N   N12       1.0  0.60056  0.27846  0.04892  1.0000
  C   C212      1.0  0.38903  0.03757  0.18158  1.0000
  C   C213      1.0  0.54799  0.28099  0.03499  1.0000
  C   C214      1.0  0.60794  0.31720  0.08646  1.0000
  H   H384      1.0  0.39948  0.48500  0.11226  1.0000
  C   C215      1.0  0.50309  0.46710  0.28500  1.0000
  C   C216      1.0  0.64494  0.43755  0.49795  1.0000
  H   H385      1.0  0.56298  0.44255  0.23920  1.0000
  S   S51       1.0  0.52543  0.05539  0.04202  1.0000
  C   C217      1.0  0.41574  0.08573  0.28579  1.0000
  C   C218      1.0  0.63712  0.47086  0.37521  1.0000
  N   N13       1.0  0.63965  0.38742  0.41735  1.0000
  H   H386      1.0  0.52666  0.26225  0.06261  1.0000
  H   H387      1.0  0.53391  0.31936  0.03454  1.0000
  H   H388      1.0  0.60898  0.35310  0.06897  1.0000
  C   C219      1.0  0.56939  0.32324  0.12739  1.0000
  H   H389      1.0  0.62682  0.49131  0.40829  1.0000
  S   S52       1.0  0.54007  0.47484  0.14305  1.0000
  H   H390      1.0  0.61545  0.13540  0.10266  1.0000
  H   H391      1.0  0.62476  0.40229  0.34199  1.0000
  H   H392      1.0  0.53380  0.02713  0.34924  1.0000
  H   H393      1.0  0.53636  0.34221  0.11318  1.0000
  H   H394      1.0  0.48791  0.10761  0.30400  1.0000
  C   C220      1.0  0.47315  0.22804  0.49278  1.0000
  H   H395      1.0  0.59947  0.38855  0.15545  1.0000
  C   C221      1.0  0.38998  0.38556  0.24780  1.0000
  S   S53       1.0  0.42928  0.03922  0.48391  1.0000
  C   C222      1.0  0.61863  0.40071  0.46674  1.0000
  C   C223      1.0  0.52871  0.46299  0.24086  1.0000
  H   H396      1.0  0.55952  0.28823  0.14233  1.0000
  H   H397      1.0  0.43028  0.26431  0.43789  1.0000
  H   H398      1.0  0.62332  0.10763  0.04401  1.0000
  C   C224      1.0  0.46530  0.31577  0.48247  1.0000
  C   C225      1.0  0.61546  0.23066  0.07152  1.0000
  C   C226      1.0  0.41981  0.10334  0.23305  1.0000
  H   H399      1.0  0.61696  0.33476  0.18828  1.0000
  H   H400      1.0  0.61753  0.36805  0.49004  1.0000
  S   S54       1.0  0.52076  0.49216  0.44435  1.0000
  Fe  Fe22      1.0  0.50525  0.49574  0.07181  1.0000
  C   C227      1.0  0.43762  0.12003  0.12954  1.0000
  H   H401      1.0  0.41826  0.35603  0.24364  1.0000
  C   C228      1.0  0.43826  0.15409  0.08631  1.0000
  N   N14       1.0  0.36100  0.40220  0.16047  1.0000
  H   H402      1.0  0.45633  0.09003  0.22042  1.0000
  H   H403      1.0  0.42053  0.14329  0.23508  1.0000
  H   H404      1.0  0.55688  0.36162  0.19525  1.0000
  H   H405      1.0  0.63185  0.43329  0.06291  1.0000
  H   H406      1.0  0.35173  0.35185  0.30631  1.0000
  H   H407      1.0  0.40825  0.41945  0.24409  1.0000
  C   C229      1.0  0.62130  0.14270  0.42687  1.0000
  H   H408      1.0  0.58128  0.14481  0.42838  1.0000
  H   H409      1.0  0.44828  0.08296  0.11693  1.0000
  H   H410      1.0  0.46541  0.13188  0.15483  1.0000
  C   C230      1.0  0.45779  0.49160  0.28668  1.0000
  H   H411      1.0  0.65942  0.48009  0.13318  1.0000
  H   H412      1.0  0.40014  0.38727  0.32524  1.0000
  H   H413      1.0  0.65271  0.47031  0.47773  1.0000
  C   C231      1.0  0.66822  0.43621  0.04659  1.0000
  H   H414      1.0  0.41159  0.14425  0.05894  1.0000
  S   S55       1.0  0.66972  0.19718  0.30038  1.0000
  Fe  Fe23      1.0  0.48657  0.09299  0.49156  1.0000
  H   H415      1.0  0.38283  0.16869  0.38988  1.0000
  H   H416      1.0  0.37542  0.03294  0.14416  1.0000
  Fe  Fe24      1.0  0.45797  0.02362  0.01549  1.0000
  H   H417      1.0  0.65401  0.22989  0.08222  1.0000
  H   H418      1.0  0.64868  0.08320  0.50234  1.0000
  H   H419      1.0  0.67016  0.00453  0.43632  1.0000
  S   S56       1.0  0.42074  0.49252  0.33852  1.0000
  H   H420      1.0  0.35056  0.37032  0.40676  1.0000
  C   C232      1.0  0.36069  0.48733  0.12199  1.0000
  H   H421      1.0  0.67678  0.46998  0.37028  1.0000
  C   C233      1.0  0.35035  0.38014  0.20894  1.0000
  H   H422      1.0  0.35097  0.17858  0.33334  1.0000
  H   H423      1.0  0.35449  0.33991  0.48748  1.0000
  C   C234      1.0  0.52637  0.00616  0.22864  1.0000
  C   C235      1.0  0.61481  0.49847  0.33246  1.0000
  Fe  Fe25      1.0  0.52382  0.00172  0.10227  1.0000
  H   H424      1.0  0.34697  0.08873  0.39150  1.0000
  H   H425      1.0  0.50179  0.01983  0.77829  1.0000
  H   H426      1.0  0.61363  0.01642  0.66023  1.0000
  C   C236      1.0  0.38664  0.09591  0.85333  1.0000
  S   S57       1.0  0.55017  0.38900  0.93012  1.0000
  H   H427      1.0  0.40234  0.08031  0.82052  1.0000
  H   H428      1.0  0.59697  0.19264  0.55867  1.0000
  C   C237      1.0  0.57495  0.21091  0.66091  1.0000
  C   C238      1.0  0.57678  0.01643  0.83590  1.0000
  S   S58       1.0  0.51563  0.05876  0.55983  1.0000
  H   H429      1.0  0.40119  0.44971  0.66392  1.0000
  H   H430      1.0  0.62235  0.36233  0.72082  1.0000
  H   H431      1.0  0.61092  0.06514  0.58559  1.0000
  H   H432      1.0  0.62367  0.18706  0.00503  1.0000
  H   H433      1.0  0.38001  0.32139  0.70647  1.0000
  C   C239      1.0  0.53495  0.26181  0.98410  1.0000
  C   C240      1.0  0.64472  0.08288  0.59348  1.0000
  C   C241      1.0  0.60729  0.16525  0.58622  1.0000
  H   H434      1.0  0.51243  0.16880  0.90735  1.0000
  H   H435      1.0  0.39138  0.33567  0.76882  1.0000
  H   H436      1.0  0.45565  0.42490  0.73027  1.0000
  C   C242      1.0  0.50309  0.23466  0.53226  1.0000
  H   H437      1.0  0.38700  0.38289  0.54960  1.0000
  S   S59       1.0  0.38846  0.06741  0.99740  1.0000
  H   H438      1.0  0.47206  0.24622  0.94192  1.0000
  H   H439      1.0  0.46151  0.29400  0.98549  1.0000
  C   C243      1.0  0.63044  0.42043  0.88217  1.0000
  C   C244      1.0  0.60443  0.38132  0.89657  1.0000
  C   C245      1.0  0.61993  0.33464  0.88114  1.0000
  C   C246      1.0  0.66003  0.32713  0.85015  1.0000
  H   H440      1.0  0.61881  0.45650  0.89383  1.0000
  H   H441      1.0  0.60011  0.30415  0.89203  1.0000
  S   S60       1.0  0.51385  0.38016  0.53930  1.0000
  C   C247      1.0  0.37690  0.09435  0.94064  1.0000
  C   C248      1.0  0.39697  0.07422  0.89821  1.0000
  C   C249      1.0  0.53974  0.44383  0.75134  1.0000
  H   H442      1.0  0.65764  0.35490  0.63675  1.0000
  H   H443      1.0  0.42029  0.04185  0.90030  1.0000
  H   H444      1.0  0.58202  0.29183  0.79593  1.0000
  H   H445      1.0  0.47212  0.30376  0.81104  1.0000
  N   N15       1.0  0.55506  0.06166  0.81262  1.0000
  C   C250      1.0  0.51976  0.08496  0.84866  1.0000
  H   H446      1.0  0.36920  0.49418  0.88699  1.0000
  H   H447      1.0  0.63355  0.16276  0.74174  1.0000
  C   C251      1.0  0.59512  0.09390  0.79922  1.0000
  C   C252      1.0  0.58210  0.14906  0.79907  1.0000
  C   C253      1.0  0.54068  0.09431  0.89962  1.0000
  H   H448      1.0  0.66336  0.19099  0.93176  1.0000
  C   C254      1.0  0.50128  0.08715  0.73923  1.0000
  C   C255      1.0  0.51974  0.47007  0.79780  1.0000
  C   C256      1.0  0.62321  0.17665  0.77826  1.0000
  C   C257      1.0  0.51175  0.13420  0.92711  1.0000
  H   H449      1.0  0.40224  0.30902  0.57537  1.0000
  H   H450      1.0  0.48899  0.06167  0.85399  1.0000
  H   H451      1.0  0.50299  0.11929  0.83490  1.0000
  C   C258      1.0  0.52825  0.04666  0.76824  1.0000
  C   C259      1.0  0.37146  0.28649  0.56800  1.0000
  H   H452      1.0  0.45283  0.09567  0.67819  1.0000
  H   H453      1.0  0.60044  0.02624  0.86596  1.0000
  H   H454      1.0  0.62636  0.08845  0.82406  1.0000
  H   H455      1.0  0.61033  0.08357  0.76308  1.0000
  H   H456      1.0  0.57516  0.16277  0.83634  1.0000
  H   H457      1.0  0.54955  0.15854  0.77772  1.0000
  H   H458      1.0  0.53995  0.06086  0.92137  1.0000
  H   H459      1.0  0.57865  0.10436  0.89748  1.0000
  H   H460      1.0  0.58665  0.37158  0.79091  1.0000
  H   H461      1.0  0.49362  0.04304  0.67442  1.0000
  H   H462      1.0  0.47665  0.11031  0.76228  1.0000
  H   H463      1.0  0.52772  0.10947  0.72098  1.0000
  C   C260      1.0  0.47077  0.06608  0.69948  1.0000
  H   H464      1.0  0.39999  0.47184  0.60339  1.0000
  H   H465      1.0  0.46706  0.23174  0.00514  1.0000
  H   H466      1.0  0.61196  0.21534  0.77538  1.0000
  H   H467      1.0  0.65512  0.17332  0.80205  1.0000
  H   H468      1.0  0.48009  0.46853  0.80110  1.0000
  H   H469      1.0  0.47388  0.12464  0.93223  1.0000
  H   H470      1.0  0.52771  0.13895  0.96337  1.0000
  H   H471      1.0  0.52735  0.46557  0.71951  1.0000
  H   H472      1.0  0.61728  0.10416  0.66540  1.0000
  H   H473      1.0  0.62818  0.26134  0.97674  1.0000
  H   H474      1.0  0.37691  0.38330  0.72628  1.0000
  H   H475      1.0  0.41213  0.22130  0.58958  1.0000
  H   H476      1.0  0.57958  0.44621  0.75261  1.0000
  H   H477      1.0  0.61839  0.30826  0.65282  1.0000
  H   H478      1.0  0.46706  0.31405  0.72641  1.0000
  C   C261      1.0  0.67077  0.41288  0.85132  1.0000
  H   H479      1.0  0.53959  0.28612  0.57561  1.0000
  C   C262      1.0  0.51534  0.28139  0.54588  1.0000
  H   H480      1.0  0.51743  0.29778  0.85709  1.0000
  H   H481      1.0  0.44231  0.04429  0.71527  1.0000
  H   H482      1.0  0.54149  0.29241  0.74802  1.0000
  C   C263      1.0  0.48053  0.25824  0.97909  1.0000
  Fe  Fe26      1.0  0.56507  0.01202  0.51117  1.0000
  C   C264      1.0  0.60207  0.37683  0.68926  1.0000
  H   H483      1.0  0.50894  0.24858  0.81597  1.0000
  H   H484      1.0  0.52938  0.39726  0.66692  1.0000
  C   C265      1.0  0.64878  0.08385  0.64885  1.0000
  H   H485      1.0  0.58079  0.47257  0.53183  1.0000
  C   C266      1.0  0.49663  0.32218  0.52104  1.0000
  H   H486      1.0  0.58497  0.23512  0.69071  1.0000
  H   H487      1.0  0.55870  0.17896  0.67673  1.0000
  Fe  Fe27      1.0  0.51992  0.45749  0.96781  1.0000
  H   H488      1.0  0.64586  0.17678  0.65552  1.0000
  H   H489      1.0  0.67486  0.12653  0.93988  1.0000
  H   H490      1.0  0.54648  0.28712  0.95603  1.0000
  H   H491      1.0  0.61173  0.41460  0.68336  1.0000
  C   C267      1.0  0.37773  0.24148  0.59931  1.0000
  H   H492      1.0  0.54776  0.23051  0.63816  1.0000
  H   H493      1.0  0.51607  0.20359  0.55239  1.0000
  H   H494      1.0  0.57365  0.14639  0.59355  1.0000
  H   H495      1.0  0.45269  0.35547  0.67866  1.0000
  H   H496      1.0  0.55251  0.22617  0.97550  1.0000
  C   C268      1.0  0.63125  0.28894  0.00542  1.0000
  H   H497      1.0  0.53155  0.37574  0.82119  1.0000
  N   N16       1.0  0.52677  0.39205  0.74489  1.0000
  C   C269      1.0  0.54667  0.37510  0.69626  1.0000
  C   C270      1.0  0.47241  0.39117  0.74602  1.0000
  C   C271      1.0  0.54832  0.36335  0.78633  1.0000
  C   C272      1.0  0.54642  0.30755  0.78436  1.0000
  H   H498      1.0  0.37325  0.27406  0.52985  1.0000
  C   C273      1.0  0.44958  0.34969  0.71826  1.0000
  C   C274      1.0  0.39620  0.34760  0.73090  1.0000
  C   C275      1.0  0.50884  0.28844  0.81913  1.0000
  C   C276      1.0  0.61991  0.19544  0.63119  1.0000
  C   C277      1.0  0.40010  0.43881  0.62534  1.0000
  H   H499      1.0  0.53710  0.33795  0.68758  1.0000
  H   H500      1.0  0.45909  0.39057  0.78407  1.0000
  C   C278      1.0  0.64839  0.03248  0.66833  1.0000
  H   H501      1.0  0.43274  0.41548  0.61625  1.0000
  H   H502      1.0  0.65331  0.03302  0.70783  1.0000
  H   H503      1.0  0.64994  0.14962  0.88439  1.0000
  C   C279      1.0  0.61970  0.34726  0.64522  1.0000
  H   H504      1.0  0.40097  0.42580  0.83955  1.0000
  H   H505      1.0  0.53636  0.45370  0.83063  1.0000
  H   H506      1.0  0.59722  0.35579  0.61310  1.0000
  C   C280      1.0  0.63132  0.11799  0.51502  1.0000
  C   C281      1.0  0.35080  0.39669  0.56265  1.0000
  C   C282      1.0  0.61491  0.45298  0.54250  1.0000
  H   H507      1.0  0.55341  0.02826  0.74164  1.0000
  N   N17       1.0  0.64565  0.12964  0.56644  1.0000
  H   H508      1.0  0.61754  0.32368  0.98920  1.0000
  H   H509      1.0  0.63674  0.22837  0.61897  1.0000
  C   C283      1.0  0.67545  0.15670  0.91367  1.0000
  H   H510      1.0  0.60639  0.42108  0.56403  1.0000
  C   C284      1.0  0.35581  0.13763  0.85040  1.0000
  H   H511      1.0  0.35479  0.38173  0.64091  1.0000
  C   C285      1.0  0.35441  0.41251  0.61595  1.0000
  C   C286      1.0  0.36133  0.43175  0.84336  1.0000
  H   H512      1.0  0.34904  0.40887  0.87335  1.0000
  H   H513      1.0  0.67108  0.29116  0.83772  1.0000
  S   S61       1.0  0.63130  0.01328  0.95688  1.0000
  H   H514      1.0  0.63510  0.47694  0.56589  1.0000
  C   C287      1.0  0.34801  0.48460  0.85512  1.0000
  H   H515      1.0  0.59206  0.11209  0.51366  1.0000
  H   H516      1.0  0.37873  0.25144  0.63817  1.0000
  H   H517      1.0  0.67966  0.42068  0.51098  1.0000
  H   H518      1.0  0.67434  0.05790  0.58047  1.0000
  H   H519      1.0  0.34783  0.21735  0.59314  1.0000
  H   H520      1.0  0.67817  0.00925  0.65204  1.0000
  Fe  Fe28      1.0  0.46222  0.00214  0.54861  1.0000
  H   H521      1.0  0.63318  0.00161  0.78076  1.0000
  H   H522      1.0  0.66521  0.43272  0.00671  1.0000
  C   C288      1.0  0.64513  0.60278  0.40420  1.0000
  H   H523      1.0  0.56212  0.88650  0.39044  1.0000
  H   H524      1.0  0.44935  0.52483  0.16832  1.0000
  H   H525      1.0  0.55979  0.79056  0.36062  1.0000
  H   H526      1.0  0.39930  0.73383  0.27460  1.0000
  S   S62       1.0  0.56849  0.94306  0.06388  1.0000
  H   H527      1.0  0.52651  0.81933  0.44107  1.0000
  Fe  Fe29      1.0  0.62577  0.75729  0.20750  1.0000
  S   S63       1.0  0.54897  0.74046  0.19165  1.0000
  C   C289      1.0  0.38544  0.73057  0.35061  1.0000
  H   H528      1.0  0.41064  0.71160  0.37563  1.0000
  C   C290      1.0  0.38453  0.70722  0.29928  1.0000
  H   H529      1.0  0.64829  0.91284  0.46139  1.0000
  S   S64       1.0  0.45249  0.55652  0.05046  1.0000
  S   S65       1.0  0.46471  0.95588  0.37269  1.0000
  S   S66       1.0  0.35110  0.83196  0.26664  1.0000
  H   H530      1.0  0.37514  0.64180  0.14506  1.0000
  S   S67       1.0  0.55916  0.50890  0.01328  1.0000
  H   H531      1.0  0.59237  0.62104  0.06925  1.0000
  C   C291      1.0  0.67300  0.57852  0.11600  1.0000
  S   S68       1.0  0.54979  0.62146  0.49466  1.0000
  S   S69       1.0  0.45341  0.97466  0.07933  1.0000
  H   H532      1.0  0.37999  0.99742  0.24953  1.0000
  C   C292      1.0  0.49875  0.77940  0.20741  1.0000
  C   C293      1.0  0.49519  0.80231  0.25260  1.0000
  C   C294      1.0  0.45020  0.82193  0.26945  1.0000
  C   C295      1.0  0.40890  0.81940  0.24076  1.0000
  C   C296      1.0  0.41363  0.80074  0.19389  1.0000
  C   C297      1.0  0.45830  0.78052  0.17743  1.0000
  H   H533      1.0  0.52651  0.80277  0.27537  1.0000
  H   H534      1.0  0.44702  0.83713  0.30550  1.0000
  H   H535      1.0  0.38243  0.79964  0.17097  1.0000
  H   H536      1.0  0.46095  0.76355  0.14210  1.0000
  H   H537      1.0  0.56355  0.66806  0.27533  1.0000
  H   H538      1.0  0.60696  0.53985  0.10576  1.0000
  H   H539      1.0  0.64605  0.86317  0.36210  1.0000
  H   H540      1.0  0.39715  0.70675  0.19944  1.0000
  C   C298      1.0  0.42849  0.80399  0.46739  1.0000
  H   H541      1.0  0.54884  0.60909  0.11557  1.0000
  C   C299      1.0  0.42879  0.85365  0.44202  1.0000
  C   C300      1.0  0.49718  0.96693  0.22972  1.0000
  C   C301      1.0  0.47903  0.95090  0.27414  1.0000
  H   H542      1.0  0.49344  0.59089  0.30296  1.0000
  H   H543      1.0  0.48799  0.94976  0.19620  1.0000
  H   H544      1.0  0.45465  0.92200  0.27458  1.0000
  C   C302      1.0  0.41370  0.64816  0.15122  1.0000
  H   H545      1.0  0.61892  0.85851  0.45449  1.0000
  H   H546      1.0  0.35210  0.92288  0.21223  1.0000
  Fe  Fe30      1.0  0.44614  0.50181  0.41484  1.0000
  H   H547      1.0  0.41449  0.77752  0.44161  1.0000
  H   H548      1.0  0.66320  0.61743  0.49540  1.0000
  H   H549      1.0  0.67589  0.86400  0.04968  1.0000
  H   H550      1.0  0.62188  0.57302  0.41330  1.0000
  H   H551      1.0  0.57782  0.60465  0.28328  1.0000
  H   H552      1.0  0.37093  0.84137  0.39115  1.0000
  H   H553      1.0  0.49952  0.61762  0.24441  1.0000
  H   H554      1.0  0.47430  0.77684  0.38274  1.0000
  C   C303      1.0  0.37116  0.94897  0.18990  1.0000
  H   H555      1.0  0.63326  0.53229  0.32672  1.0000
  H   H556      1.0  0.54828  0.76304  0.46438  1.0000
  H   H557      1.0  0.35592  0.94880  0.15299  1.0000
  H   H558      1.0  0.41876  0.58942  0.32504  1.0000
  S   S70       1.0  0.42805  0.57099  0.45546  1.0000
  H   H559      1.0  0.47277  0.67447  0.33806  1.0000
  H   H560      1.0  0.49352  0.71957  0.40866  1.0000
  H   H561      1.0  0.59641  0.64836  0.12857  1.0000
  H   H562      1.0  0.45693  0.71103  0.47793  1.0000
  C   C304      1.0  0.54759  0.75396  0.36824  1.0000
  H   H563      1.0  0.36219  0.55165  0.16827  1.0000
  C   C305      1.0  0.37962  0.86733  0.42001  1.0000
  S   S71       1.0  0.46373  0.84673  0.03376  1.0000
  H   H564      1.0  0.42624  0.67181  0.12199  1.0000
  C   C306      1.0  0.45844  0.74831  0.02815  1.0000
  C   C307      1.0  0.58744  0.61525  0.10866  1.0000
  C   C308      1.0  0.50383  0.75688  0.40207  1.0000
  H   H565      1.0  0.66042  0.78641  0.47110  1.0000
  H   H566      1.0  0.40253  0.52875  0.24550  1.0000
  C   C309      1.0  0.58838  0.91385  0.38172  1.0000
  H   H567      1.0  0.55783  0.64109  0.33457  1.0000
  H   H568      1.0  0.64384  0.78891  0.38658  1.0000
  S   S72       1.0  0.66524  0.81312  0.16703  1.0000
  H   H569      1.0  0.43555  0.61348  0.14949  1.0000
  H   H570      1.0  0.45600  0.85376  0.41250  1.0000
  C   C310      1.0  0.64003  0.89339  0.38799  1.0000
  H   H571      1.0  0.40381  0.63538  0.36650  1.0000
  Fe  Fe31      1.0  0.48490  0.99598  0.44013  1.0000
  C   C311      1.0  0.65010  0.87821  0.44110  1.0000
  H   H572      1.0  0.45806  0.68108  0.20319  1.0000
  C   C312      1.0  0.43856  0.51189  0.24445  1.0000
  H   H573      1.0  0.61131  0.56678  0.16471  1.0000
  H   H574      1.0  0.57740  0.73124  0.38426  1.0000
  H   H575      1.0  0.58115  0.94618  0.40501  1.0000
  H   H576      1.0  0.58314  0.92469  0.34343  1.0000
  H   H577      1.0  0.45026  0.67206  0.01737  1.0000
  H   H578      1.0  0.66871  0.77272  0.05537  1.0000
  C   C313      1.0  0.61878  0.57163  0.12566  1.0000
  S   S73       1.0  0.65848  0.77118  0.27943  1.0000
  Fe  Fe32      1.0  0.49767  0.91975  0.03493  1.0000
  H   H579      1.0  0.40959  0.93639  0.18771  1.0000
  H   H580      1.0  0.64846  0.60583  0.36432  1.0000
  H   H581      1.0  0.53794  0.73739  0.33333  1.0000
  H   H582      1.0  0.38028  0.90353  0.40340  1.0000
  N   N18       1.0  0.41255  0.65962  0.29252  1.0000
  C   C314      1.0  0.40334  0.64108  0.24231  1.0000
  C   C315      1.0  0.39673  0.62352  0.32905  1.0000
  H   H583      1.0  0.39841  0.76746  0.34699  1.0000
  C   C316      1.0  0.46550  0.66709  0.29947  1.0000
  C   C317      1.0  0.50121  0.62454  0.28388  1.0000
  C   C318      1.0  0.41973  0.67275  0.20008  1.0000
  H   H584      1.0  0.47619  0.69978  0.27982  1.0000
  C   C319      1.0  0.51537  0.78253  0.45011  1.0000
  C   C320      1.0  0.55324  0.63546  0.29513  1.0000
  H   H585      1.0  0.67019  0.70725  0.36367  1.0000
  H   H586      1.0  0.42067  0.60478  0.23730  1.0000
  H   H587      1.0  0.42277  0.75479  0.04371  1.0000
  Fe  Fe33      1.0  0.50086  0.55817  0.48973  1.0000
  H   H588      1.0  0.62688  0.63661  0.41807  1.0000
  C   C321      1.0  0.49136  0.97311  0.31765  1.0000
  H   H589      1.0  0.36431  0.63686  0.23694  1.0000
  H   H590      1.0  0.40068  0.80831  0.49649  1.0000
  H   H591      1.0  0.57606  0.50799  0.33962  1.0000
  H   H592      1.0  0.43668  0.88239  0.46827  1.0000
  H   H593      1.0  0.66419  0.92219  0.37746  1.0000
  N   N19       1.0  0.47584  0.78495  0.48803  1.0000
  H   H594      1.0  0.37616  0.91163  0.04840  1.0000
  H   H595      1.0  0.66033  0.70885  0.42820  1.0000
  C   C322      1.0  0.48809  0.78723  0.02183  1.0000
  H   H596      1.0  0.67218  0.52861  0.20131  1.0000
  S   S74       1.0  0.51275  0.95414  0.50413  1.0000
  H   H597      1.0  0.35924  0.56366  0.10480  1.0000
  C   C323      1.0  0.36480  0.99918  0.21274  1.0000
  C   C324      1.0  0.46440  0.50872  0.20065  1.0000
  H   H598      1.0  0.66233  0.51333  0.04477  1.0000
  C   C325      1.0  0.47392  0.70132  0.01310  1.0000
  H   H599      1.0  0.67768  0.58511  0.07678  1.0000
  H   H600      1.0  0.67874  0.55556  0.48959  1.0000
  H   H601      1.0  0.34813  0.55434  0.38129  1.0000
  H   H602      1.0  0.67439  0.64051  0.01479  1.0000
  H   H603      1.0  0.67834  0.92692  0.06411  1.0000
  H   H604      1.0  0.34680  0.70556  0.28658  1.0000
  H   H605      1.0  0.35088  0.86853  0.44820  1.0000
  C   C326      1.0  0.46983  0.73480  0.50697  1.0000
  S   S75       1.0  0.49849  0.96817  0.96965  1.0000
  C   C327      1.0  0.48999  0.81848  0.52782  1.0000
  S   S76       1.0  0.46916  0.51550  0.93788  1.0000
  H   H606      1.0  0.65247  0.72318  0.59124  1.0000
  H   H607      1.0  0.41033  0.71989  0.74977  1.0000
  H   H608      1.0  0.42964  0.61236  0.76451  1.0000
  H   H609      1.0  0.58438  0.96169  0.77846  1.0000
  S   S77       1.0  0.65574  0.67906  0.68796  1.0000
  H   H610      1.0  0.64430  0.60125  0.97410  1.0000
  C   C328      1.0  0.43399  0.67884  0.56812  1.0000
  C   C329      1.0  0.54932  0.73144  0.98606  1.0000
  C   C330      1.0  0.57634  0.63968  0.54932  1.0000
  C   C331      1.0  0.57042  0.61425  0.59212  1.0000
  C   C332      1.0  0.59423  0.62781  0.63430  1.0000
  C   C333      1.0  0.62436  0.66674  0.63422  1.0000
  C   C334      1.0  0.62953  0.69302  0.59166  1.0000
  C   C335      1.0  0.60538  0.67961  0.54941  1.0000
  H   H611      1.0  0.54809  0.58364  0.59259  1.0000
  H   H612      1.0  0.58995  0.60737  0.66709  1.0000
  H   H613      1.0  0.43653  0.62953  0.93008  1.0000
  H   H614      1.0  0.51808  0.54066  0.83202  1.0000
  H   H615      1.0  0.55164  0.90032  0.71308  1.0000
  H   H616      1.0  0.57639  0.88522  0.93626  1.0000
  H   H617      1.0  0.57301  0.84001  0.69650  1.0000
  C   C336      1.0  0.53132  0.52320  0.79780  1.0000
  C   C337      1.0  0.41550  0.92969  0.86414  1.0000
  C   C338      1.0  0.38718  0.92972  0.61890  1.0000
  C   C339      1.0  0.36889  0.91486  0.66360  1.0000
  H   H618      1.0  0.58462  0.72511  0.96974  1.0000
  H   H619      1.0  0.38960  0.56805  0.88931  1.0000
  H   H620      1.0  0.37925  0.93266  0.69646  1.0000
  H   H621      1.0  0.43410  0.77622  0.93741  1.0000
  C   C340      1.0  0.38704  0.84072  0.93390  1.0000
  C   C341      1.0  0.53421  0.77820  0.00217  1.0000
  H   H622      1.0  0.61376  0.92518  0.85762  1.0000
  H   H623      1.0  0.43223  0.94175  0.89787  1.0000
  H   H624      1.0  0.44333  0.75373  0.58091  1.0000
  H   H625      1.0  0.35236  0.97956  0.86694  1.0000
  H   H626      1.0  0.37739  0.77764  0.74986  1.0000
  C   C342      1.0  0.54798  0.83966  0.59393  1.0000
  H   H627      1.0  0.55789  0.80749  0.99881  1.0000
  H   H628      1.0  0.56654  0.79314  0.53428  1.0000
  H   H629      1.0  0.41906  0.86238  0.93160  1.0000
  H   H630      1.0  0.42829  0.57216  0.83850  1.0000
  H   H631      1.0  0.65981  0.56323  0.56974  1.0000
  H   H632      1.0  0.36962  0.59539  0.67321  1.0000
  S   S78       1.0  0.63897  0.98124  0.53468  1.0000
  H   H633      1.0  0.42443  0.89075  0.85821  1.0000
  C   C343      1.0  0.40167  0.59303  0.74513  1.0000
  H   H634      1.0  0.38646  0.74586  0.80576  1.0000
  H   H635      1.0  0.52743  0.76811  0.57849  1.0000
  H   H636      1.0  0.51810  0.84748  0.62028  1.0000
  H   H637      1.0  0.58072  0.82658  0.61368  1.0000
  H   H638      1.0  0.51351  0.54232  0.76702  1.0000
  C   C344      1.0  0.63733  0.94432  0.83256  1.0000
  H   H639      1.0  0.66773  0.65681  0.95280  1.0000
  N   N20       1.0  0.53302  0.76952  0.82128  1.0000
  C   C345      1.0  0.51941  0.80388  0.86204  1.0000
  C   C346      1.0  0.48843  0.74645  0.80365  1.0000
  C   C347      1.0  0.56599  0.72998  0.84254  1.0000
  C   C348      1.0  0.55888  0.79372  0.78061  1.0000
  C   C349      1.0  0.54220  0.84709  0.76916  1.0000
  C   C350      1.0  0.56233  0.82694  0.88709  1.0000
  C   C351      1.0  0.58266  0.68792  0.80817  1.0000
  C   C352      1.0  0.45001  0.77947  0.77784  1.0000
  C   C353      1.0  0.40334  0.75395  0.77046  1.0000
  C   C354      1.0  0.57020  0.86659  0.72651  1.0000
  C   C355      1.0  0.54573  0.87206  0.91533  1.0000
  C   C356      1.0  0.62283  0.65598  0.83106  1.0000
  H   H640      1.0  0.50032  0.78478  0.89098  1.0000
  H   H641      1.0  0.49359  0.83307  0.85005  1.0000
  H   H642      1.0  0.49808  0.71765  0.77674  1.0000
  H   H643      1.0  0.47073  0.72847  0.83439  1.0000
  H   H644      1.0  0.54877  0.71386  0.87482  1.0000
  H   H645      1.0  0.59950  0.74509  0.85606  1.0000
  H   H646      1.0  0.59797  0.79395  0.78866  1.0000
  H   H647      1.0  0.55674  0.77219  0.74669  1.0000
  H   H648      1.0  0.54792  0.87144  0.80015  1.0000
  H   H649      1.0  0.50361  0.85125  0.76029  1.0000
  H   H650      1.0  0.57949  0.80099  0.91285  1.0000
  H   H651      1.0  0.59056  0.83678  0.86111  1.0000
  H   H652      1.0  0.59647  0.70171  0.77354  1.0000
  H   H653      1.0  0.55257  0.66446  0.80068  1.0000
  H   H654      1.0  0.44060  0.81306  0.79831  1.0000
  H   H655      1.0  0.46344  0.78857  0.74128  1.0000
  H   H656      1.0  0.37354  0.76513  0.92335  1.0000
  H   H657      1.0  0.49844  0.85378  0.51233  1.0000
  H   H658      1.0  0.66529  0.81344  0.54424  1.0000
  H   H659      1.0  0.60695  0.87515  0.73785  1.0000
  C   C357      1.0  0.39269  0.58551  0.85347  1.0000
  H   H660      1.0  0.53258  0.90081  0.89023  1.0000
  H   H661      1.0  0.51638  0.86404  0.94099  1.0000
  H   H662      1.0  0.61012  0.64060  0.86561  1.0000
  H   H663      1.0  0.63385  0.62599  0.80592  1.0000
  H   H664      1.0  0.65476  0.67715  0.83831  1.0000
  S   S79       1.0  0.53754  0.63585  0.96541  1.0000
  S   S80       1.0  0.42655  0.97736  0.61767  1.0000
  H   H665      1.0  0.66411  0.85918  0.62041  1.0000
  H   H666      1.0  0.38712  0.91824  0.54192  1.0000
  H   H667      1.0  0.60996  0.69960  0.51642  1.0000
  H   H668      1.0  0.42319  0.65417  0.53890  1.0000
  H   H669      1.0  0.43078  0.99501  0.82505  1.0000
  H   H670      1.0  0.41158  0.78960  0.87787  1.0000
  C   C358      1.0  0.67336  0.77539  0.97736  1.0000
  C   C359      1.0  0.43808  0.64977  0.89562  1.0000
  S   S81       1.0  0.47238  0.51531  0.55096  1.0000
  H   H671      1.0  0.45925  0.82701  0.55316  1.0000
  H   H672      1.0  0.54822  0.99517  0.85263  1.0000
  H   H673      1.0  0.42395  0.94289  0.78690  1.0000
  C   C360      1.0  0.43397  0.73071  0.54993  1.0000
  C   C361      1.0  0.43825  0.95552  0.82188  1.0000
  Fe  Fe34      1.0  0.50460  0.56640  0.98886  1.0000
  H   H674      1.0  0.63945  0.87368  0.53626  1.0000
  Fe  Fe35      1.0  0.42005  0.50150  0.00127  1.0000
  H   H675      1.0  0.38342  0.65352  0.69720  1.0000
  H   H676      1.0  0.40789  0.67673  0.59855  1.0000
  H   H677      1.0  0.47221  0.63912  0.87619  1.0000
  H   H678      1.0  0.41476  0.55491  0.74010  1.0000
  H   H679      1.0  0.66498  0.96207  0.85409  1.0000
  H   H680      1.0  0.37738  0.83847  0.97281  1.0000
  C   C362      1.0  0.40237  0.78993  0.91681  1.0000
  H   H681      1.0  0.47031  0.66659  0.58120  1.0000
  C   C363      1.0  0.39605  0.61497  0.69473  1.0000
  C   C364      1.0  0.53457  0.80108  0.55779  1.0000
  C   C365      1.0  0.35867  0.51759  0.81174  1.0000
  H   H682      1.0  0.64114  0.79874  0.97423  1.0000
  H   H683      1.0  0.39701  0.66147  0.83107  1.0000
  C   C366      1.0  0.37350  0.90678  0.57649  1.0000
  H   H684      1.0  0.67412  0.51651  0.64368  1.0000
  C   C367      1.0  0.51911  0.69286  0.99098  1.0000
  C   C368      1.0  0.67435  0.62573  0.97744  1.0000
  C   C369      1.0  0.35321  0.59706  0.77345  1.0000
  C   C370      1.0  0.39458  0.64008  0.86454  1.0000
  H   H685      1.0  0.55609  0.87350  0.57510  1.0000
  H   H686      1.0  0.43796  0.68865  0.90485  1.0000
  H   H687      1.0  0.38572  0.93055  0.96221  1.0000
  H   H688      1.0  0.43121  0.61227  0.67525  1.0000
  C   C371      1.0  0.60786  0.98159  0.80287  1.0000
  C   C372      1.0  0.67349  0.85194  0.54255  1.0000
  H   H689      1.0  0.65596  0.91727  0.80816  1.0000
  Fe  Fe36      1.0  0.40086  0.52309  0.51329  1.0000
  H   H690      1.0  0.36230  0.65330  0.88550  1.0000
  C   C373      1.0  0.34697  0.93786  0.95411  1.0000
  H   H691      1.0  0.47786  0.94757  0.82193  1.0000
  N   N21       1.0  0.35241  0.57119  0.82120  1.0000
  H   H692      1.0  0.34802  0.92708  0.83015  1.0000
  H   H693      1.0  0.39663  0.74140  0.53873  1.0000
  C   C374      1.0  0.36028  0.93975  0.86587  1.0000
  Fe  Fe37      1.0  0.56626  0.99561  0.00234  1.0000
  H   H694      1.0  0.39620  0.50763  0.79985  1.0000
  H   H695      1.0  0.57089  0.52680  0.79534  1.0000
  H   H696      1.0  0.50524  0.71773  0.51781  1.0000
  Fe  Fe38      1.0  0.69684  0.17502  0.22621  1.0000
  H   H697      1.0  0.75145  0.01622  0.40211  1.0000
  H   H698      1.0  0.00542  0.44697  0.18197  1.0000
  Fe  Fe39      1.0  0.73345  0.24382  0.30161  1.0000
  H   H699      1.0  0.69505  0.06959  0.28923  1.0000
  S   S82       1.0  0.78794  0.24992  0.36209  1.0000
  Fe  Fe40      1.0  0.71977  0.27912  0.19768  1.0000
  S   S83       1.0  0.74510  0.32328  0.13337  1.0000
  S   S84       1.0  0.76355  0.21721  0.22984  1.0000
  H   H700      1.0  0.76856  0.16296  0.49539  1.0000
  S   S85       1.0  0.91173  0.47306  0.12522  1.0000
  H   H701      1.0  0.79533  0.11781  0.16129  1.0000
  Fe  Fe41      1.0  0.91385  0.03497  0.48391  1.0000
  H   H702      1.0  0.77157  0.48244  0.28237  1.0000
  H   H703      1.0  0.99755  0.20650  0.31058  1.0000
  C   C375      1.0  0.69341  0.49003  0.11503  1.0000
  S   S86       1.0  0.97174  0.06676  0.43782  1.0000
  H   H704      1.0  0.73163  0.09280  0.36254  1.0000
  C   C376      1.0  0.69396  0.38700  0.41919  1.0000
  C   C377      1.0  0.81594  0.48625  0.46400  1.0000
  C   C378      1.0  0.98694  0.24763  0.50531  1.0000
  H   H705      1.0  0.69319  0.24484  0.40456  1.0000
  S   S87       1.0  0.69343  0.30851  0.26934  1.0000
  H   H706      1.0  0.99390  0.09385  0.32482  1.0000
  S   S88       1.0  0.83660  0.03545  0.05167  1.0000
  H   H707      1.0  0.78009  0.41971  0.37905  1.0000
  H   H708      1.0  0.72275  0.48713  0.04113  1.0000
  C   C379      1.0  0.87487  0.18007  0.04488  1.0000
  H   H709      1.0  0.74040  0.46517  0.20069  1.0000
  H   H710      1.0  0.69261  0.31888  0.04355  1.0000
  C   C380      1.0  0.79225  0.36407  0.13216  1.0000
  C   C381      1.0  0.80895  0.38022  0.08721  1.0000
  C   C382      1.0  0.84596  0.41288  0.08445  1.0000
  C   C383      1.0  0.86604  0.43067  0.12667  1.0000
  C   C384      1.0  0.84898  0.41494  0.17165  1.0000
  C   C385      1.0  0.81255  0.38161  0.17443  1.0000
  H   H711      1.0  0.79364  0.36681  0.05430  1.0000
  H   H712      1.0  0.85936  0.42405  0.04974  1.0000
  H   H713      1.0  0.86426  0.42840  0.20456  1.0000
  H   H714      1.0  0.79997  0.36973  0.20926  1.0000
  C   C386      1.0  0.79940  0.26010  0.46078  1.0000
  C   C387      1.0  0.76713  0.25333  0.42272  1.0000
  H   H715      1.0  0.69281  0.40639  0.06001  1.0000
  H   H716      1.0  0.83743  0.26158  0.45331  1.0000
  H   H717      1.0  0.91209  0.24644  0.19364  1.0000
  H   H718      1.0  0.70648  0.39132  0.34034  1.0000
  C   C388      1.0  0.94808  0.34419  0.50738  1.0000
  H   H719      1.0  0.78389  0.03622  0.30480  1.0000
  H   H720      1.0  0.79329  0.36708  0.34186  1.0000
  C   C389      1.0  0.70146  0.25848  0.48101  1.0000
  C   C390      1.0  0.71824  0.25106  0.43334  1.0000
  H   H721      1.0  0.80250  0.19212  0.02020  1.0000
  H   H722      1.0  0.78284  0.10812  0.39844  1.0000
  C   C391      1.0  0.79549  0.10954  0.32042  1.0000
  H   H723      1.0  0.93841  0.40575  0.39891  1.0000
  N   N22       1.0  0.94902  0.26384  0.33988  1.0000
  H   H724      1.0  0.70613  0.42299  0.42919  1.0000
  C   C392      1.0  0.92012  0.26048  0.29410  1.0000
  C   C393      1.0  0.95351  0.31554  0.35524  1.0000
  C   C394      1.0  0.92370  0.23835  0.37977  1.0000
  C   C395      1.0  0.91563  0.18452  0.37067  1.0000
  H   H725      1.0  0.70759  0.36222  0.44830  1.0000
  C   C396      1.0  0.90538  0.34586  0.36343  1.0000
  C   C397      1.0  0.93502  0.29310  0.25186  1.0000
  C   C398      1.0  0.90528  0.28410  0.20675  1.0000
  C   C399      1.0  0.89042  0.16221  0.41372  1.0000
  C   C400      1.0  0.94875  0.05707  0.27397  1.0000
  C   C401      1.0  0.91401  0.39948  0.36826  1.0000
  H   H726      1.0  0.82517  0.04305  0.35178  1.0000
  H   H727      1.0  0.92896  0.33180  0.26146  1.0000
  H   H728      1.0  0.92288  0.22291  0.27979  1.0000
  H   H729      1.0  0.88093  0.26803  0.30160  1.0000
  H   H730      1.0  0.70302  0.25711  0.02440  1.0000
  H   H731      1.0  0.97315  0.31739  0.39000  1.0000
  H   H732      1.0  0.94297  0.24186  0.41441  1.0000
  H   H733      1.0  0.88739  0.25582  0.38623  1.0000
  H   H734      1.0  0.95018  0.16362  0.36394  1.0000
  H   H735      1.0  0.89190  0.18094  0.33915  1.0000
  S   S89       1.0  0.69656  0.10201  0.18874  1.0000
  C   C402      1.0  0.74739  0.01003  0.44042  1.0000
  H   H736      1.0  0.88766  0.33472  0.39742  1.0000
  H   H737      1.0  0.87994  0.34176  0.33332  1.0000
  C   C403      1.0  0.76245  0.11633  0.36480  1.0000
  H   H738      1.0  0.97365  0.28595  0.24227  1.0000
  H   H739      1.0  0.83634  0.13943  0.23907  1.0000
  H   H740      1.0  0.91544  0.30893  0.17751  1.0000
  H   H741      1.0  0.71837  0.33246  0.36603  1.0000
  H   H742      1.0  0.88454  0.12378  0.40606  1.0000
  H   H743      1.0  0.91255  0.16452  0.44681  1.0000
  H   H744      1.0  0.85456  0.18065  0.42040  1.0000
  H   H745      1.0  0.91250  0.18478  0.03276  1.0000
  H   H746      1.0  0.86617  0.29075  0.21459  1.0000
  H   H747      1.0  0.82431  0.13488  0.32473  1.0000
  N   N23       1.0  0.85696  0.04612  0.28087  1.0000
  H   H748      1.0  0.87925  0.42006  0.37551  1.0000
  H   H749      1.0  0.90518  0.06305  0.33891  1.0000
  H   H750      1.0  0.85361  0.09855  0.13646  1.0000
  H   H751      1.0  0.87064  0.14176  0.05443  1.0000
  H   H752      1.0  0.94430  0.05568  0.23424  1.0000
  H   H753      1.0  0.93002  0.41316  0.33445  1.0000
  H   H754      1.0  0.80449  0.05519  0.22355  1.0000
  H   H755      1.0  0.72088  0.46125  0.12518  1.0000
  H   H756      1.0  0.81345  0.44679  0.46873  1.0000
  H   H757      1.0  0.89407  0.11039  0.29773  1.0000
  H   H758      1.0  0.86776  0.20248  0.07782  1.0000
  H   H759      1.0  0.89259  0.11796  0.21316  1.0000
  H   H760      1.0  0.77403  0.11984  0.28799  1.0000
  C   C404      1.0  0.83459  0.12286  0.16325  1.0000
  H   H761      1.0  0.86287  0.03605  0.20288  1.0000
  C   C405      1.0  0.72116  0.37155  0.37214  1.0000
  S   S90       1.0  0.84534  0.01810  0.44407  1.0000
  C   C406      1.0  0.68749  0.48492  0.05957  1.0000
  C   C407      1.0  0.99906  0.24125  0.33052  1.0000
  C   C408      1.0  0.77475  0.38060  0.37539  1.0000
  C   C409      1.0  0.99796  0.33436  0.50530  1.0000
  H   H762      1.0  0.99435  0.01619  0.16155  1.0000
  H   H763      1.0  0.74787  0.15424  0.36710  1.0000
  H   H764      1.0  0.79131  0.36107  0.40663  1.0000
  H   H765      1.0  0.97503  0.12953  0.27284  1.0000
  H   H766      1.0  0.70717  0.49299  0.27866  1.0000
  C   C410      1.0  0.90006  0.07089  0.29968  1.0000
  C   C411      1.0  0.81525  0.05647  0.31535  1.0000
  H   H767      1.0  0.97588  0.33428  0.32865  1.0000
  C   C412      1.0  0.84352  0.06033  0.22975  1.0000
  C   C413      1.0  0.85342  0.11240  0.21405  1.0000
  H   H768      1.0  0.84078  0.16070  0.15356  1.0000
  H   H769      1.0  0.96292  0.02108  0.28645  1.0000
  S   S91       1.0  0.00827  0.46957  0.01157  1.0000
  C   C414      1.0  0.73787  0.03231  0.05481  1.0000
  C   C415      1.0  0.69209  0.02682  0.03452  1.0000
  H   H770      1.0  0.85199  0.49598  0.47669  1.0000
  H   H771      1.0  0.74177  0.03458  0.09358  1.0000
  C   C416      1.0  0.98686  0.09289  0.28536  1.0000
  C   C417      1.0  0.77897  0.03360  0.02529  1.0000
  C   C418      1.0  0.69572  0.03830  0.26591  1.0000
  H   H772      1.0  0.01046  0.10266  0.12066  1.0000
  H   H773      1.0  0.68121  0.15830  0.47082  1.0000
  H   H774      1.0  0.01312  0.45919  0.27597  1.0000
  C   C419      1.0  0.69363  0.04444  0.21584  1.0000
  Fe  Fe42      1.0  0.98269  0.11436  0.50256  1.0000
  C   C420      1.0  0.78819  0.00896  0.47026  1.0000
  H   H775      1.0  0.81271  0.49462  0.42490  1.0000
  C   C421      1.0  0.69242  0.00342  0.18603  1.0000
  C   C422      1.0  0.70123  0.00314  0.45972  1.0000
  H   H776      1.0  0.68825  0.00766  0.14755  1.0000
  C   C423      1.0  0.68591  0.29273  0.01448  1.0000
  S   S92       1.0  0.92218  0.40415  0.50560  1.0000
  Fe  Fe43      1.0  0.01285  0.04223  0.01325  1.0000
  Fe  Fe44      1.0  0.75201  0.28999  0.75045  1.0000
  S   S93       1.0  0.80581  0.23031  0.77081  1.0000
  H   H777      1.0  0.68278  0.09967  0.65997  1.0000
  Fe  Fe45      1.0  0.74530  0.25161  0.64545  1.0000
  S   S94       1.0  0.79755  0.18842  0.65803  1.0000
  H   H778      1.0  0.83972  0.32262  0.93222  1.0000
  Fe  Fe46      1.0  0.75827  0.18159  0.72886  1.0000
  H   H779      1.0  0.72491  0.09294  0.51643  1.0000
  Fe  Fe47      1.0  0.84069  0.24136  0.69876  1.0000
  S   S95       1.0  0.91724  0.25564  0.67880  1.0000
  H   H780      1.0  0.81222  0.06261  0.80950  1.0000
  S   S96       1.0  0.79024  0.30403  0.68117  1.0000
  H   H781      1.0  0.00312  0.22085  0.83143  1.0000
  C   C424      1.0  0.72793  0.02837  0.95470  1.0000
  S   S97       1.0  0.92126  0.08680  0.54637  1.0000
  Fe  Fe48      1.0  0.97631  0.03054  0.57282  1.0000
  H   H782      1.0  0.00611  0.18202  0.91554  1.0000
  H   H783      1.0  0.83920  0.43194  0.56923  1.0000
  H   H784      1.0  0.79654  0.46311  0.00252  1.0000
  H   H785      1.0  0.70850  0.28468  0.93901  1.0000
  S   S98       1.0  0.73237  0.11253  0.76172  1.0000
  C   C425      1.0  0.77373  0.03218  0.97530  1.0000
  H   H786      1.0  0.95088  0.13923  0.75498  1.0000
  H   H787      1.0  0.00435  0.26800  0.93730  1.0000
  H   H788      1.0  0.74992  0.31484  0.97755  1.0000
  C   C426      1.0  0.78332  0.38202  0.57143  1.0000
  H   H789      1.0  0.86882  0.03817  0.83129  1.0000
  C   C427      1.0  0.73393  0.01379  0.76562  1.0000
  C   C428      1.0  0.84675  0.49260  0.65932  1.0000
  C   C429      1.0  0.97819  0.02458  0.79168  1.0000
  C   C430      1.0  0.96617  0.07397  0.79510  1.0000
  S   S99       1.0  0.94914  0.08901  0.99008  1.0000
  Fe  Fe49      1.0  0.90496  0.02602  0.00667  1.0000
  H   H790      1.0  0.73009  0.49190  0.94647  1.0000
  H   H791      1.0  0.76581  0.12754  0.95111  1.0000
  H   H792      1.0  0.80942  0.11631  0.51824  1.0000
  Fe  Fe50      1.0  0.96052  0.05389  0.91720  1.0000
  C   C431      1.0  0.96793  0.24633  0.71612  1.0000
  C   C432      1.0  0.96411  0.23634  0.76553  1.0000
  C   C433      1.0  0.96054  0.10110  0.75263  1.0000
  H   H793      1.0  0.92899  0.23314  0.78189  1.0000
  C   C434      1.0  0.00613  0.22943  0.79349  1.0000
  C   C435      1.0  0.74743  0.05371  0.73874  1.0000
  S   S100      1.0  0.70207  0.24149  0.71348  1.0000
  C   C436      1.0  0.77084  0.04579  0.69418  1.0000
  H   H794      1.0  0.86464  0.08474  0.90107  1.0000
  H   H795      1.0  0.78199  0.07605  0.67329  1.0000
  H   H796      1.0  0.74836  0.18853  0.96136  1.0000
  H   H797      1.0  0.96266  0.10036  0.67442  1.0000
  H   H798      1.0  0.73399  0.12874  0.86916  1.0000
  H   H799      1.0  0.80780  0.26928  0.53804  1.0000
  H   H800      1.0  0.87273  0.24206  0.86023  1.0000
  H   H801      1.0  0.98688  0.38808  0.58681  1.0000
  N   N24       1.0  0.86546  0.44109  0.66687  1.0000
  C   C437      1.0  0.82964  0.40863  0.64500  1.0000
  C   C438      1.0  0.86974  0.43254  0.72071  1.0000
  S   S101      1.0  0.95895  0.10245  0.85209  1.0000
  C   C439      1.0  0.91389  0.43328  0.64193  1.0000
  H   H802      1.0  0.76297  0.46271  0.89713  1.0000
  C   C440      1.0  0.80995  0.42276  0.59437  1.0000
  C   C441      1.0  0.86429  0.38017  0.73868  1.0000
  C   C442      1.0  0.89015  0.37013  0.78629  1.0000
  H   H803      1.0  0.94920  0.37908  0.68995  1.0000
  H   H804      1.0  0.79754  0.40709  0.66921  1.0000
  H   H805      1.0  0.84573  0.37146  0.64144  1.0000
  H   H806      1.0  0.90443  0.44536  0.73370  1.0000
  H   H807      1.0  0.00939  0.34578  0.63113  1.0000
  S   S102      1.0  0.73403  0.35888  0.79368  1.0000
  H   H808      1.0  0.91017  0.43751  0.60237  1.0000
  H   H809      1.0  0.93836  0.46128  0.65268  1.0000
  H   H810      1.0  0.92218  0.35384  0.63680  1.0000
  H   H811      1.0  0.76819  0.41476  0.97209  1.0000
  H   H812      1.0  0.78379  0.45426  0.59801  1.0000
  H   H813      1.0  0.82550  0.37478  0.74475  1.0000
  H   H814      1.0  0.87803  0.35238  0.71261  1.0000
  H   H815      1.0  0.92971  0.37071  0.78102  1.0000
  H   H816      1.0  0.87791  0.39684  0.81446  1.0000
  H   H817      1.0  0.88234  0.33342  0.79855  1.0000
  H   H818      1.0  0.84529  0.12713  0.96925  1.0000
  H   H819      1.0  0.79177  0.16736  0.55608  1.0000
  H   H820      1.0  0.80657  0.16055  0.84187  1.0000
  C   C443      1.0  0.94198  0.38432  0.65097  1.0000
  H   H821      1.0  0.80820  0.34962  0.56677  1.0000
  C   C444      1.0  0.77909  0.14234  0.52824  1.0000
  H   H822      1.0  0.84418  0.23471  0.99889  1.0000
  H   H823      1.0  0.88678  0.24417  0.92340  1.0000
  H   H824      1.0  0.88697  0.32452  0.88758  1.0000
  C   C445      1.0  0.98572  0.00280  0.74613  1.0000
  H   H825      1.0  0.84145  0.45454  0.74105  1.0000
  C   C446      1.0  0.69508  0.14913  0.56771  1.0000
  H   H826      1.0  0.78644  0.23916  0.87639  1.0000
  C   C447      1.0  0.96706  0.07907  0.70690  1.0000
  H   H827      1.0  0.70576  0.15801  0.60507  1.0000
  H   H828      1.0  0.75225  0.37280  0.59440  1.0000
  C   C448      1.0  0.68516  0.36634  0.83460  1.0000
  H   H829      1.0  0.76982  0.39298  0.53525  1.0000
  C   C449      1.0  0.71134  0.31060  0.96941  1.0000
  C   C450      1.0  0.73667  0.11503  0.54695  1.0000
  H   H830      1.0  0.82522  0.32095  0.86850  1.0000
  H   H831      1.0  0.69436  0.18377  0.54843  1.0000
  H   H832      1.0  0.97949  0.32921  0.93585  1.0000
  H   H833      1.0  0.79275  0.25094  0.93838  1.0000
  H   H834      1.0  0.88568  0.16819  0.94623  1.0000
  H   H835      1.0  0.86681  0.16236  0.86176  1.0000
  H   H836      1.0  0.71686  0.01952  0.80062  1.0000
  H   H837      1.0  0.80550  0.03279  0.95293  1.0000
  C   C451      1.0  0.76374  0.16327  0.93315  1.0000
  C   C452      1.0  0.83934  0.19597  0.00551  1.0000
  H   H838      1.0  0.69535  0.34641  0.95845  1.0000
  C   C453      1.0  0.99123  0.49184  0.73696  1.0000
  S   S103      1.0  0.70835  0.27710  0.57693  1.0000
  C   C454      1.0  0.76667  0.48183  0.93211  1.0000
  H   H839      1.0  0.75007  0.09012  0.57582  1.0000
  H   H840      1.0  0.97907  0.43417  0.78657  1.0000
  H   H841      1.0  0.72449  0.02668  0.91580  1.0000
  C   C455      1.0  0.73324  0.26559  0.51882  1.0000
  N   N25       1.0  0.81320  0.17758  0.91790  1.0000
  C   C456      1.0  0.72588  0.16086  0.89245  1.0000
  C   C457      1.0  0.84767  0.16552  0.95852  1.0000
  C   C458      1.0  0.81028  0.23089  0.90765  1.0000
  C   C459      1.0  0.83050  0.15118  0.87270  1.0000
  C   C460      1.0  0.83504  0.09567  0.87617  1.0000
  H   H842      1.0  0.80127  0.08146  0.88976  1.0000
  C   C461      1.0  0.85876  0.25387  0.89637  1.0000
  C   C462      1.0  0.98134  0.47246  0.78281  1.0000
  H   H843      1.0  0.82666  0.43211  0.95217  1.0000
  C   C463      1.0  0.84604  0.07196  0.82687  1.0000
  C   C464      1.0  0.85204  0.30886  0.89614  1.0000
  H   H844      1.0  0.86511  0.09594  0.80213  1.0000
  H   H845      1.0  0.69025  0.44330  0.83945  1.0000
  C   C465      1.0  0.99107  0.38193  0.62590  1.0000
  H   H846      1.0  0.72513  0.19322  0.86918  1.0000
  C   C466      1.0  0.79110  0.44582  0.96688  1.0000
  S   S104      1.0  0.95980  0.47735  0.88045  1.0000
  C   C467      1.0  0.97983  0.02979  0.70357  1.0000
  Fe  Fe51      1.0  0.96488  0.47045  0.51957  1.0000
  C   C468      1.0  0.78263  0.26511  0.50891  1.0000
  H   H847      1.0  0.99838  0.46832  0.70633  1.0000
  C   C469      1.0  0.68707  0.02414  0.98426  1.0000
  H   H848      1.0  0.80842  0.49680  0.67115  1.0000
  H   H849      1.0  0.87928  0.31279  0.51232  1.0000
  H   H850      1.0  0.98273  0.00332  0.82413  1.0000
  H   H851      1.0  0.91333  0.22794  0.51166  1.0000
  C   C470      1.0  0.93708  0.25738  0.50963  1.0000
  C   C471      1.0  0.91780  0.30549  0.50988  1.0000
  Fe  Fe52      1.0  0.71814  0.71620  0.25931  1.0000
  H   H852      1.0  0.87003  0.90841  0.22353  1.0000
  S   S105      1.0  0.74804  0.65132  0.30278  1.0000
  Fe  Fe53      1.0  0.72222  0.75319  0.15471  1.0000
  S   S106      1.0  0.76064  0.72690  0.08578  1.0000
  Fe  Fe54      1.0  0.70198  0.82392  0.23845  1.0000
  H   H853      1.0  0.97235  0.97733  0.20801  1.0000
  S   S107      1.0  0.76350  0.76930  0.22242  1.0000
  C   C472      1.0  0.93494  0.70303  0.17928  1.0000
  C   C473      1.0  0.77589  0.51350  0.49304  1.0000
  H   H854      1.0  0.89258  0.78272  0.31400  1.0000
  S   S108      1.0  0.91187  0.64389  0.46274  1.0000
  H   H855      1.0  0.72158  0.89875  0.50574  1.0000
  Fe  Fe55      1.0  0.96374  0.60553  0.01602  1.0000
  C   C474      1.0  0.97111  0.77686  0.03867  1.0000
  H   H856      1.0  0.89204  0.84338  0.04466  1.0000
  C   C475      1.0  0.96247  0.73580  0.01082  1.0000
  C   C476      1.0  0.79711  0.65030  0.34348  1.0000
  C   C477      1.0  0.81527  0.69257  0.36179  1.0000
  C   C478      1.0  0.85137  0.68996  0.39737  1.0000
  C   C479      1.0  0.87046  0.64519  0.41421  1.0000
  C   C480      1.0  0.85435  0.60300  0.39378  1.0000
  C   C481      1.0  0.81706  0.60556  0.35946  1.0000
  H   H857      1.0  0.80050  0.72722  0.34957  1.0000
  H   H858      1.0  0.86410  0.72285  0.41251  1.0000
  H   H859      1.0  0.86921  0.56837  0.40594  1.0000
  H   H860      1.0  0.80346  0.57264  0.34540  1.0000
  C   C482      1.0  0.70144  0.95056  0.25539  1.0000
  C   C483      1.0  0.69103  0.79663  0.44798  1.0000
  H   H861      1.0  0.96087  0.96441  0.14573  1.0000
  S   S109      1.0  0.96797  0.98141  0.03650  1.0000
  H   H862      1.0  0.74094  0.50217  0.47928  1.0000
  C   C484      1.0  0.98766  0.97832  0.17099  1.0000
  C   C485      1.0  0.68928  0.76110  0.02357  1.0000
  H   H863      1.0  0.83794  0.77718  0.13756  1.0000
  S   S110      1.0  0.94494  0.68291  0.03995  1.0000
  H   H864      1.0  0.80652  0.97345  0.23817  1.0000
  H   H865      1.0  0.99557  0.74490  0.28647  1.0000
  C   C486      1.0  0.93544  0.69935  0.27002  1.0000
  H   H866      1.0  0.95968  0.73256  0.17335  1.0000
  N   N26       1.0  0.69717  0.84992  0.45132  1.0000
  C   C487      1.0  0.70004  0.89440  0.05156  1.0000
  C   C488      1.0  0.88291  0.72645  0.17924  1.0000
  H   H867      1.0  0.78302  0.51583  0.11909  1.0000
  H   H868      1.0  0.90106  0.78758  0.13447  1.0000
  C   C489      1.0  0.88031  0.61781  0.24520  1.0000
  C   C490      1.0  0.86574  0.56589  0.23962  1.0000
  C   C491      1.0  0.69998  0.99153  0.28560  1.0000
  C   C492      1.0  0.69522  0.59441  0.42617  1.0000
  H   H869      1.0  0.89912  0.98280  0.25619  1.0000
  C   C493      1.0  0.70794  0.53835  0.18723  1.0000
  H   H870      1.0  0.89559  0.70436  0.27327  1.0000
  C   C494      1.0  0.93025  0.62425  0.22162  1.0000
  S   S111      1.0  0.98860  0.51614  0.45791  1.0000
  H   H871      1.0  0.95498  0.59782  0.24078  1.0000
  H   H872      1.0  0.87714  0.73780  0.10144  1.0000
  H   H873      1.0  0.87156  0.88372  0.47769  1.0000
  H   H874      1.0  0.82929  0.56280  0.25546  1.0000
  H   H875      1.0  0.87544  0.74941  0.21158  1.0000
  H   H876      1.0  0.85614  0.69861  0.17743  1.0000
  H   H877      1.0  0.71283  0.57524  0.20176  1.0000
  C   C495      1.0  0.73374  0.73558  0.02861  1.0000
  H   H878      1.0  0.81676  0.88519  0.24983  1.0000
  C   C496      1.0  0.95648  0.74928  0.27826  1.0000
  H   H879      1.0  0.88168  0.62522  0.28456  1.0000
  H   H880      1.0  0.85177  0.64193  0.22928  1.0000
  H   H881      1.0  0.70710  0.78778  0.37010  1.0000
  H   H882      1.0  0.75698  0.62616  0.12341  1.0000
  H   H883      1.0  0.75577  0.55070  0.07256  1.0000
  C   C497      1.0  0.93166  0.77570  0.32110  1.0000
  H   H884      1.0  0.80216  0.73085  0.48428  1.0000
  H   H885      1.0  0.94794  0.81083  0.32689  1.0000
  H   H886      1.0  0.88274  0.98149  0.31852  1.0000
  C   C498      1.0  0.00442  0.66734  0.22277  1.0000
  C   C499      1.0  0.71171  0.86073  0.50261  1.0000
  C   C500      1.0  0.74948  0.65186  0.50192  1.0000
  H   H887      1.0  0.86571  0.88209  0.12264  1.0000
  H   H888      1.0  0.85420  0.56849  0.11192  1.0000
  C   C501      1.0  0.82782  0.95947  0.26936  1.0000
  H   H889      1.0  0.71193  0.56014  0.41120  1.0000
  H   H890      1.0  0.86881  0.89264  0.28708  1.0000
  H   H891      1.0  0.72647  0.86306  0.37967  1.0000
  C   C502      1.0  0.69650  0.95673  0.20557  1.0000
  C   C503      1.0  0.75730  0.54734  0.11253  1.0000
  H   H892      1.0  0.80783  0.85171  0.05813  1.0000
  C   C504      1.0  0.87630  0.88085  0.04436  1.0000
  N   N27       1.0  0.70794  0.53852  0.13269  1.0000
  C   C505      1.0  0.78038  0.59351  0.13097  1.0000
  N   N28       1.0  0.95002  0.67399  0.22330  1.0000
  H   H893      1.0  0.70307  0.98715  0.32428  1.0000
  H   H894      1.0  0.76063  0.65816  0.46394  1.0000
  H   H895      1.0  0.95192  0.77258  0.24603  1.0000
  H   H896      1.0  0.93620  0.75407  0.35459  1.0000
  C   C506      1.0  0.78006  0.56852  0.48963  1.0000
  C   C507      1.0  0.84731  0.90830  0.25675  1.0000
  H   H897      1.0  0.78663  0.59198  0.17045  1.0000
  H   H898      1.0  0.80492  0.91475  0.04620  1.0000
  H   H899      1.0  0.93896  0.68048  0.14594  1.0000
  H   H900      1.0  0.80105  0.83904  0.45841  1.0000
  H   H901      1.0  0.78619  0.57726  0.45121  1.0000
  H   H902      1.0  0.72838  0.88614  0.07872  1.0000
  C   C508      1.0  0.82874  0.60007  0.10576  1.0000
  H   H903      1.0  0.72091  0.70798  0.40350  1.0000
  C   C509      1.0  0.78615  0.83735  0.42161  1.0000
  C   C510      1.0  0.82263  0.85784  0.38675  1.0000
  H   H904      1.0  0.74561  0.54336  0.27913  1.0000
  H   H905      1.0  0.78301  0.79891  0.41178  1.0000
  H   H906      1.0  0.81016  0.85465  0.34883  1.0000
  H   H907      1.0  0.82750  0.89645  0.39510  1.0000
  H   H908      1.0  0.85801  0.83752  0.39011  1.0000
  H   H909      1.0  0.71720  0.62358  0.41328  1.0000
  H   H910      1.0  0.84497  0.63275  0.12010  1.0000
  H   H911      1.0  0.78304  0.51131  0.20055  1.0000
  C   C511      1.0  0.98191  0.82049  0.01635  1.0000
  H   H912      1.0  0.92417  0.89887  0.10226  1.0000
  H   H913      1.0  0.72331  0.77625  0.46244  1.0000
  C   C512      1.0  0.82199  0.87957  0.03370  1.0000
  H   H914      1.0  0.98807  0.85203  0.03791  1.0000
  H   H915      1.0  0.94649  0.67631  0.30139  1.0000
  S   S112      1.0  0.71363  0.89269  0.28068  1.0000
  C   C513      1.0  0.73667  0.86579  0.41815  1.0000
  H   H916      1.0  0.96907  0.77502  0.07762  1.0000
  C   C514      1.0  0.87460  0.75917  0.13546  1.0000
  H   H917      1.0  0.82362  0.60500  0.06626  1.0000
  H   H918      1.0  0.86500  0.55517  0.20092  1.0000
  S   S113      1.0  0.99700  0.56493  0.07799  1.0000
  C   C515      1.0  0.69234  0.59149  0.48220  1.0000
  H   H919      1.0  0.80315  0.95694  0.30096  1.0000
  H   H920      1.0  0.87246  0.94064  0.09588  1.0000
  H   H921      1.0  0.92881  0.61081  0.18360  1.0000
  H   H922      1.0  0.74221  0.90480  0.42420  1.0000
  C   C516      1.0  0.88503  0.90199  0.09444  1.0000
  C   C517      1.0  0.68072  0.77662  0.39747  1.0000
  Fe  Fe56      1.0  0.95172  0.57856  0.49754  1.0000
  S   S114      1.0  0.68067  0.69708  0.19096  1.0000
  H   H923      1.0  0.89134  0.54071  0.25890  1.0000
  H   H924      1.0  0.89505  0.90204  0.01683  1.0000
  C   C518      1.0  0.86927  0.99243  0.28204  1.0000
  H   H925      1.0  0.69660  0.92562  0.18191  1.0000
  C   C519      1.0  0.74223  0.50580  0.26623  1.0000
  H   H926      1.0  0.68091  0.61302  0.13365  1.0000
  C   C520      1.0  0.74590  0.50301  0.21112  1.0000
  C   C521      1.0  0.68312  0.72175  0.39839  1.0000
  Fe  Fe57      1.0  0.94997  0.50453  0.05955  1.0000
  H   H927      1.0  0.01291  0.59948  0.18028  1.0000
  C   C522      1.0  0.97785  0.55179  0.81823  1.0000
  H   H928      1.0  0.87053  0.69191  0.61793  1.0000
  H   H929      1.0  0.93296  0.69511  0.63310  1.0000
  H   H930      1.0  0.69126  0.91015  0.97619  1.0000
  H   H931      1.0  0.95481  0.78713  0.58828  1.0000
  S   S115      1.0  0.91160  0.99412  0.93209  1.0000
  H   H932      1.0  0.81851  0.98813  0.88293  1.0000
  H   H933      1.0  0.00819  0.87414  0.69929  1.0000
  C   C523      1.0  0.89398  0.87106  0.60114  1.0000
  Fe  Fe58      1.0  0.97759  0.95356  0.96068  1.0000
  H   H934      1.0  0.92396  0.89526  0.77801  1.0000
  H   H935      1.0  0.69953  0.90426  0.59366  1.0000
  Fe  Fe59      1.0  0.81240  0.74060  0.74956  1.0000
  S   S116      1.0  0.79702  0.81207  0.78649  1.0000
  S   S117      1.0  0.88284  0.69603  0.74674  1.0000
  S   S118      1.0  0.96442  0.97641  0.51365  1.0000
  C   C524      1.0  0.72636  0.58429  0.91178  1.0000
  Fe  Fe60      1.0  0.75787  0.83146  0.71800  1.0000
  S   S119      1.0  0.77280  0.89988  0.67715  1.0000
  Fe  Fe61      1.0  0.72749  0.78084  0.81013  1.0000
  H   H936      1.0  0.73620  0.58423  0.72821  1.0000
  S   S120      1.0  0.77664  0.76082  0.67944  1.0000
  S   S121      1.0  0.74647  0.70793  0.77924  1.0000
  H   H937      1.0  0.89368  0.91100  0.60522  1.0000
  H   H938      1.0  0.85594  0.58846  0.63277  1.0000
  H   H939      1.0  0.87129  0.52882  0.72570  1.0000
  C   C525      1.0  0.75958  0.72017  0.98692  1.0000
  C   C526      1.0  0.85314  0.58262  0.67235  1.0000
  C   C527      1.0  0.99199  0.54172  0.73109  1.0000
  H   H940      1.0  0.75157  0.62226  0.97655  1.0000
  H   H941      1.0  0.73629  0.53163  0.64428  1.0000
  H   H942      1.0  0.78662  0.60506  0.79578  1.0000
  H   H943      1.0  0.97385  0.57485  0.84965  1.0000
  C   C528      1.0  0.74216  0.96651  0.74749  1.0000
  C   C529      1.0  0.76442  0.95862  0.70243  1.0000
  H   H944      1.0  0.98537  0.60982  0.76771  1.0000
  S   S122      1.0  0.92361  0.53277  0.55703  1.0000
  H   H945      1.0  0.97854  0.78403  0.89925  1.0000
  C   C530      1.0  0.74264  0.73289  0.94061  1.0000
  H   H946      1.0  0.74922  0.82897  0.00436  1.0000
  H   H947      1.0  0.93785  0.86748  0.53421  1.0000
  H   H948      1.0  0.95741  0.70779  0.93872  1.0000
  H   H949      1.0  0.76328  0.72200  0.90876  1.0000
  H   H950      1.0  0.71493  0.62557  0.58044  1.0000
  C   C531      1.0  0.69770  0.55226  0.57880  1.0000
  H   H951      1.0  0.79385  0.70008  0.99063  1.0000
  C   C532      1.0  0.70084  0.76283  0.93588  1.0000
  C   C533      1.0  0.98382  0.82340  0.96598  1.0000
  C   C534      1.0  0.89270  0.76481  0.62883  1.0000
  C   C535      1.0  0.89452  0.91267  0.75616  1.0000
  C   C536      1.0  0.93827  0.72380  0.75148  1.0000
  C   C537      1.0  0.97931  0.70281  0.72799  1.0000
  C   C538      1.0  0.94236  0.76579  0.77883  1.0000
  H   H952      1.0  0.97648  0.67031  0.70678  1.0000
  H   H953      1.0  0.91113  0.78217  0.79739  1.0000
  H   H954      1.0  0.72510  0.84343  0.60117  1.0000
  H   H955      1.0  0.71403  0.61689  0.89115  1.0000
  C   C539      1.0  0.97649  0.78209  0.93831  1.0000
  H   H956      1.0  0.73129  0.93612  0.76828  1.0000
  H   H957      1.0  0.82543  0.65164  0.52507  1.0000
  H   H958      1.0  0.87455  0.60984  0.69054  1.0000
  C   C540      1.0  0.90098  0.86005  0.54652  1.0000
  C   C541      1.0  0.90303  0.71265  0.61207  1.0000
  C   C542      1.0  0.69949  0.54420  0.63331  1.0000
  H   H959      1.0  0.87117  0.93020  0.52281  1.0000
  C   C543      1.0  0.73127  0.59210  0.56304  1.0000
  H   H960      1.0  0.99407  0.85784  0.58986  1.0000
  H   H961      1.0  0.86263  0.78075  0.60713  1.0000
  H   H962      1.0  0.79701  0.99273  0.64147  1.0000
  H   H963      1.0  0.72572  0.56622  0.98918  1.0000
  H   H964      1.0  0.69864  0.55772  0.90497  1.0000
  H   H965      1.0  0.77475  0.53230  0.74433  1.0000
  C   C544      1.0  0.90668  0.90871  0.70227  1.0000
  C   C545      1.0  0.79694  0.52667  0.92584  1.0000
  C   C546      1.0  0.79626  0.72462  0.52344  1.0000
  H   H966      1.0  0.89471  0.82175  0.53850  1.0000
  H   H967      1.0  0.76688  0.58505  0.58072  1.0000
  N   N29       1.0  0.80862  0.86951  0.98187  1.0000
  H   H968      1.0  0.87797  0.83984  0.69118  1.0000
  H   H969      1.0  0.79059  0.95615  0.83544  1.0000
  C   C547      1.0  0.97866  0.86961  0.62550  1.0000
  C   C548      1.0  0.91360  0.85537  0.68564  1.0000
  H   H970      1.0  0.89005  0.95130  0.76675  1.0000
  H   H971      1.0  0.74110  0.51857  0.84373  1.0000
  H   H972      1.0  0.81501  0.58831  0.68409  1.0000
  H   H973      1.0  0.78310  0.66773  0.57261  1.0000
  C   C549      1.0  0.79045  0.67119  0.53333  1.0000
  H   H974      1.0  0.83264  0.51285  0.91133  1.0000
  C   C550      1.0  0.93821  0.79404  0.62461  1.0000
  C   C551      1.0  0.98530  0.57136  0.77206  1.0000
  C   C552      1.0  0.75623  0.58197  0.80347  1.0000
  H   H975      1.0  0.87675  0.92769  0.68246  1.0000
  N   N30       1.0  0.77542  0.56562  0.89360  1.0000
  H   H976      1.0  0.82777  0.88461  0.52674  1.0000
  S   S123      1.0  0.91273  0.54700  0.00025  1.0000
  H   H977      1.0  0.93960  0.92804  0.69577  1.0000
  H   H978      1.0  0.85689  0.86180  0.61176  1.0000
  Fe  Fe62      1.0  0.97320  0.51529  0.95238  1.0000
  H   H979      1.0  0.80463  0.54159  0.96226  1.0000
  C   C553      1.0  0.80834  0.60695  0.89300  1.0000
  C   C554      1.0  0.85914  0.59639  0.87010  1.0000
  C   C555      1.0  0.96532  0.73863  0.96055  1.0000
  C   C556      1.0  0.88563  0.64288  0.86657  1.0000
  H   H980      1.0  0.81483  0.61990  0.93036  1.0000
  H   H981      1.0  0.79073  0.63857  0.87420  1.0000
  C   C557      1.0  0.98718  0.78672  0.78226  1.0000
  H   H982      1.0  0.99007  0.81941  0.80326  1.0000
  H   H983      1.0  0.86022  0.89556  0.76403  1.0000
  H   H984      1.0  0.88085  0.76383  0.66709  1.0000
  H   H985      1.0  0.88128  0.57075  0.89249  1.0000
  H   H986      1.0  0.85745  0.58112  0.83312  1.0000
  C   C558      1.0  0.75549  0.86125  0.98247  1.0000
  N   N31       1.0  0.93101  0.84745  0.63428  1.0000
  H   H987      1.0  0.86360  0.67023  0.84630  1.0000
  H   H988      1.0  0.89359  0.65679  0.90318  1.0000
  H   H989      1.0  0.91987  0.63687  0.84624  1.0000
  H   H990      1.0  0.81406  0.57642  0.50826  1.0000
  S   S124      1.0  0.99726  0.87700  0.93598  1.0000
  C   C559      1.0  0.83620  0.82381  0.96528  1.0000
  C   C560      1.0  0.86554  0.89144  0.51671  1.0000
  C   C561      1.0  0.82128  0.91116  0.95028  1.0000
  C   C562      1.0  0.78920  0.92074  0.90490  1.0000
  N   N32       1.0  0.73822  0.59971  0.50930  1.0000
  H   H991      1.0  0.91279  0.71114  0.57303  1.0000
  C   C563      1.0  0.82956  0.80948  0.91167  1.0000
  C   C564      1.0  0.85541  0.76121  0.89900  1.0000
  H   H992      1.0  0.82805  0.73679  0.54292  1.0000
  C   C565      1.0  0.81354  0.95190  0.86782  1.0000
  C   C566      1.0  0.76975  0.54494  0.84357  1.0000
  H   H993      1.0  0.97352  0.90926  0.62251  1.0000
  H   H994      1.0  0.74227  0.85197  0.94624  1.0000
  H   H995      1.0  0.91177  0.53053  0.67512  1.0000
  C   C567      1.0  0.77923  0.99844  0.67614  1.0000
  Fe  Fe63      1.0  0.99322  0.54231  0.59637  1.0000
  C   C568      1.0  0.73681  0.99049  0.53840  1.0000
  H   H996      1.0  0.82006  0.94528  0.97137  1.0000
  H   H997      1.0  0.85959  0.90613  0.93820  1.0000
  H   H998      1.0  0.75442  0.93935  0.91561  1.0000
  H   H999      1.0  0.78011  0.88752  0.88587  1.0000
  H   H1000     1.0  0.80315  0.52377  0.83186  1.0000
  H   H1001     1.0  0.84899  0.93491  0.85636  1.0000
  H   H1002     1.0  0.87567  0.82709  0.96873  1.0000
  H   H1003     1.0  0.93830  0.83590  0.71100  1.0000
  H   H1004     1.0  0.79116  0.80674  0.90285  1.0000
  H   H1005     1.0  0.84506  0.83646  0.88752  1.0000
  H   H1006     1.0  0.89427  0.76562  0.89322  1.0000
  H   H1007     1.0  0.85036  0.73408  0.92759  1.0000
  H   H1008     1.0  0.84091  0.74791  0.86452  1.0000
  H   H1009     1.0  0.72440  0.60559  0.81391  1.0000
  C   C569      1.0  0.87358  0.53229  0.68579  1.0000
  Fe  Fe64      1.0  0.70885  0.73413  0.71190  1.0000
  H   H1010     1.0  0.71158  0.53554  0.76133  1.0000
  C   C570      1.0  0.72271  0.59866  0.96604  1.0000
  H   H1011     1.0  0.96433  0.77725  0.65062  1.0000
  S   S125      1.0  0.00066  0.56923  0.67396  1.0000
  S   S126      1.0  0.68680  0.80643  0.74419  1.0000
  H   H1012     1.0  0.76394  0.74651  0.53632  1.0000
  C   C571      1.0  0.74398  0.55669  0.75645  1.0000
  H   H1013     1.0  0.73312  0.98245  0.57643  1.0000
  S   S127      1.0  0.68488  0.79004  0.88011  1.0000
  H   H1014     1.0  0.74466  0.83877  0.51282  1.0000
  H   H1015     1.0  0.70721  0.51744  0.56080  1.0000
  H   H1016     1.0  0.68887  0.57810  0.65302  1.0000
  H   H1017     1.0  0.81362  0.99839  0.54291  1.0000
  H   H1018     1.0  0.00269  0.66360  0.82690  1.0000
  C   C572      1.0  0.78263  0.99930  0.51945  1.0000
  H   H1019     1.0  0.82712  0.79314  0.98883  1.0000
  H   H1020     1.0  0.71658  0.67592  0.50877  1.0000
  H   H1021     1.0  0.99665  0.96487  0.74401  1.0000
  C   C573      1.0  0.72173  0.90382  0.00167  1.0000
  H   H1022     1.0  0.74049  0.93769  0.00315  1.0000
  S   S128      1.0  0.99100  0.00041  0.64752  1.0000
  H   H1023     1.0  0.78018  0.50246  0.53114  1.0000
  C   C574      1.0  0.69179  0.86552  0.59237  1.0000
  C   C575      1.0  0.97447  0.50240  0.82366  1.0000
  H   H1024     1.0  0.84768  0.50173  0.62026  1.0000
  C   C576      1.0  0.69575  0.99320  0.50889  1.0000
