data_image0
_chemical_formula_structural       FeSC4HCSCH3CFeHSHCH5CH6CH2CH2C2NCHC2SCHCH6CHC2H5CHC2HFeH2CH2CHC2H2C2H2CH2C2SH3NH5CH2CHSHCH2SH2CSCSH2FeHCHCH3CHCH4C2HSHFeC3H4NHC2HCH2C2HC2HC2HCH2C2HCSHSH6CHCNH3CHCH2C2H2CH4C2HSFeHC2SFeCNH2CH3FeHCH2SH5S2H3CH4SHC2H6CH2C2HSCHCH2CHCHCHCH2CH9C2HC2H2SHCH4C2HNHCHCH2C5H3CHCH2C3HCFeC2H6CH7NHC3H2CH6SCHFeHCHCH2C2H2C2NHC2H3C2H2SH2CH3CH3CSHCHC2H2NCH5C2H5CHSH2C2SHCHC2H2C2H3C3SHFeSHFeSHFeSFeS2FeSHFeS2FeSFeS3HCHC6H5C2HC6HCH3CH6NHCHCH2CSHCHCH4C3NH2CH2SHC2H4CH4C3HC2H2C2HC2HCH2CH3CH3CH9C2H2C2H6C2H3C2H7C2H2CH3SC2H2C2H3CH4CH2NHCH4NH10CHCH2C3H2CS2C2H6CHSH3CSH4CHCHCHCH3CHFeSCFeSCFeSFeCSHFeHFeHFeH2S2FeSCFeSHFeSFeS2CFeHFeS2CFeCS2H2CH3CHCHNH3CHCH2CHCH2CSH4SCH6CHC6H4SHC4H2CH4CHCHC2H2CH3CH2FeH4CHSHC2HCH8CH3CHNCH2SH6CSH4CH2C2H3CH2C4NHCHCHCH2CH2C2H2CH2CH2SH2C2H4CH2CH2C2HCHC2H5C2H5CSCH4C5SHCHC2H3CHCHC2H3CH4FeH2SHCH2C2H4SHCHSH2CH5CH3CH3CHCH5CHCH3CH3CH9CHCHNHSH4CHCNCHC2HCH2CHSC2HCHCH2C2H4CHC3H3C2H4CHCH3C2H2SH2CHCH4SCSCHCH4SFeSC2SFeSHFeHFeCSCFeCHFeSFe2S3HSFeSHFeHFeSHFeSFeC2HFeHS2H2CHCHCH2CHCHSH3C4HC7H3C2H4C2HCH3S2HCH7CNCH2CH2CHCSHC4H3C2HNH3C3H4C2H4C2HCHCH3CH3C4H6CHCH2FeH2C2H3CH2CH3C2HC2H3CH5C4H3C2H2SH3CH3CH2SC2H3CHC4HSCH4CHNHCH2CHC2HCH3CHNHC3HCH2CH8C2HSH3CHCH2CFeH2S2H2C2HC2H4SC2H5CNFeH7C2H2CH3CHCH5C3H2CH6CHFeH3CH4CH2CH3NSH3CHC4HCH8CHSH3NHC3H2CH2CH2CH2CHC3H5CHCH6SCH4CHSCH6CH2CH2SCHC7SH5C3H3C2HCNH3C2H4C2H5CH2FeSFeSHFeSFeS2FeCFeSFe2CS2FeSHCHCHCH4NCFeCSCHCH5SHC2HCH3FeH2C2H4CHCHCH4SH4CH2SH3SHC3H3SHCH2CFeH4C2H3CH3C2H6C4H3NC6HCH14CHC2HC3H2CNC2NC3SC4SH4CHCH6CH12C2HC2HC4H2CH6SHCH4SC2HC2HSC2SCH6CHSHCH6CH2C2H5C3H3CSHC2H2CH3CH6SHC2H2CFeSHFeSHFeCFeSCSFeCSFeS2FeHFeCS2H3CHC2HCH9CH3C2HC9H4SC2H4CHCH2C3H3CH2C3HC3HNH2C4H4CHC2H7CH5C2HNH2CH2N2CHC2HC2H4C2HCH2CH2NHSH6CH3SH2CHC2HCH3CHCHCH4NSHC2H7C2H6CH5CH6C2H3C2SH3C2HC2SH3FeS2FeSHFeSFeHSHFeHSFeS2FeCFeCS2CH3CH3C6H4CSH2CH4C3HCH7C2NH2CH2S2CH3C3HCH2C2HCHC2HC2H3C2H4C2SNC12H28CH2NH2CH3CH2CH2CH2CHC3HCH4SH2CSH5CH2FeSH3FeSHCH3SHFeHCH4SH2FeSCH4CH3CHCH3NH4C3HCHCH4C5HSH2CSHSCH4FeH2CH2CHFeCHCH4FeSHCSFeCH2CHSH7CHSC2H5CHCHCH2C2HCH2CHCH3C5H9C2HC2NHC2HSFeCHCH4CSHC2H2CHS2HCH3NHCHFeHCHCNSH3CHCSC3HC3H8C2HC2H2CH2C3H7CHNCHCH4SCH3CH6CFeSHFeHFeC2FeHSHSHSHFeCHCHSHFeSC2H3FeSCHS2H2FeCSCHS3HSHC2HSFeHCHCS2H6CH3C2SHCHCH5C4H6CFeH2C2H3FeCH3C2H3CH2C3H3CFeHCH5CH4CH3NHCFeHC3H4C2HCH4C2H2CH2CHSNH4CH2CH2CHCHC3H4CHSCH4CH6SCH7NHCH4SCHCHSCH2C3H2SCHCSCH5SH2CFeHCH3CH4C2HCFeH2CHC2H3CH3FeHC2HCHCHCHCHCHSH5CHNC3H3C2H6CHC2H5C2H4FeCHCH2C4S2H2CHNH4CHSC2HSHC3HC3HCH5CHCHC6SHSH3CHCH2FeHC2H5CHCH2C3HCHC2HCNH2CHCH4CH4CSHCHFeSHFeSHFeSFeSHSFeHFeH3S3FeSHFeS2FeHFeS3CFeS3FeSH2SH5CHCHSH3NCH2C3H5CH2C7H4CH2C2SC2HNHC2H3NC2HCH2C2H2CHCHC2H4C2H2CH3CH2NCH6CH2CH3CH5CHCH3C2H5CHC3H3NC12H28CH2C2H3SC4H2C5H7CHCH3C4H2C2H4C2HNH3C2H2CHFeH2CH2CH2CHCH7C2H2NH5C3H2CHSH2C4HCH2CHC2HCHC2HC2HCHCHCH4CHC3H4CHSH5CH2FeH3CH2CH3CH2NHCH2C2H3CH5CH5C2H2CH7C2HCHSC3H4CH2NFeCSHCFeNFeS2FeSFeHS2FeSHFeSHFeCFeSHSC7H7CH2CHC2HCHSH2C2H4CH2SCNC2HC2H4C3HNH5SH2C2H4SHCSFeH2C2HCSC2H5CH3C2H3CH2CH2CH4CH2CH3C2H2C2HCHCH3CH2C4H8CHC2HSH2CHCH2SH5CHC3H4CH6C2H5CH5C2H2CH3CH2CHNH2CHC5FeCHCHCH4C2HSC3H3CHS2HNC2H5C6H2CH2CHFeS2Fe2SFeSH3NH3SH4SCH3CH2C2HCHCHCHCH8C3H2SCHCSCFeCHC3HSC2H3C2HCHC4H3CH3CH3CH2CH3CSNC4HC5NH8CSH2CH6C2H2FeC2HFeCH2CH4CH8C2HSCH4C2NFeH3SH3NCHCH2CH3C3H2CSH2SHCH2SHCH2C2H4SC3H3CH3NH2C2H5CH8FeHC2H2C2H3S2HC3HC2HNCH6CHC2H3C2H3C3H2SCH6CHC2HCFeHC3H2S2H3C2H5CHSHSCHCH2FeCHCHNHCH3SH3C2HCHCH2CH7C2H2
_chemical_formula_sum              "Fe144 S288 C1296 H2304 N72"
_cell_length_a       81.0434
_cell_length_b       80.6125
_cell_length_c       37.4209
_cell_angle_alpha    91.5193
_cell_angle_beta     91.6135
_cell_angle_gamma    115.998

_space_group_name_H-M_alt    "P 1"
_space_group_IT_number       1

loop_
  _space_group_symop_operation_xyz
  'x, y, z'

loop_
  _atom_site_type_symbol
  _atom_site_label
  _atom_site_symmetry_multiplicity
  _atom_site_fract_x
  _atom_site_fract_y
  _atom_site_fract_z
  _atom_site_occupancy
  Fe  Fe1       1.0  0.40660  0.00718  0.41625  1.0000
  S   S1        1.0  0.40240  0.00973  0.15261  1.0000
  C   C1        1.0  0.39570  0.99713  0.25747  1.0000
  C   C2        1.0  0.44127  0.07634  0.43717  1.0000
  C   C3        1.0  0.47418  0.02370  0.27445  1.0000
  C   C4        1.0  0.44649  0.02889  0.27708  1.0000
  H   H1        1.0  0.44055  0.02565  0.20296  1.0000
  C   C5        1.0  0.44636  0.00579  0.23340  1.0000
  S   S2        1.0  0.42275  0.03909  0.41866  1.0000
  C   C6        1.0  0.41574  0.13293  0.43647  1.0000
  H   H2        1.0  0.39893  0.15618  0.44248  1.0000
  H   H3        1.0  0.43672  0.18942  0.44377  1.0000
  H   H4        1.0  0.45161  0.99564  0.22602  1.0000
  C   C7        1.0  0.44622  0.09255  0.45902  1.0000
  Fe  Fe2       1.0  0.41146  0.01311  0.01926  1.0000
  H   H5        1.0  0.45862  0.02974  0.39659  1.0000
  S   S3        1.0  0.43091  0.01821  0.06649  1.0000
  H   H6        1.0  0.37132  0.01734  0.17851  1.0000
  C   C8        1.0  0.48465  0.24096  0.99390  1.0000
  H   H7        1.0  0.44211  0.06195  0.03195  1.0000
  H   H8        1.0  0.42627  0.16945  0.41516  1.0000
  H   H9        1.0  0.44764  0.06002  0.34550  1.0000
  H   H10       1.0  0.46313  0.20104  0.40396  1.0000
  H   H11       1.0  0.41097  0.10625  0.41260  1.0000
  C   C9        1.0  0.42437  0.14503  0.47116  1.0000
  H   H12       1.0  0.43244  0.11798  0.43799  1.0000
  H   H13       1.0  0.47063  0.02966  0.02930  1.0000
  H   H14       1.0  0.45024  0.01973  0.14474  1.0000
  H   H15       1.0  0.45351  0.16215  0.43015  1.0000
  H   H16       1.0  0.43840  0.14605  0.47632  1.0000
  H   H17       1.0  0.45223  0.02315  0.46081  1.0000
  C   C10       1.0  0.46668  0.02976  0.45259  1.0000
  H   H18       1.0  0.46354  0.18317  0.45766  1.0000
  H   H19       1.0  0.47859  0.02425  0.30312  1.0000
  C   C11       1.0  0.47492  0.05110  0.45856  1.0000
  H   H20       1.0  0.46423  0.05489  0.44719  1.0000
  H   H21       1.0  0.39510  0.00403  0.28228  1.0000
  C   C12       1.0  0.35903  0.01084  0.19485  1.0000
  C   C13       1.0  0.46873  0.99546  0.00696  1.0000
  N   N1        1.0  0.45342  0.01448  0.27033  1.0000
  C   C14       1.0  0.47018  0.04993  0.99259  1.0000
  H   H22       1.0  0.36334  0.01526  0.22332  1.0000
  C   C15       1.0  0.41768  0.11495  0.43712  1.0000
  C   C16       1.0  0.44545  0.05429  0.31748  1.0000
  S   S4        1.0  0.38645  0.99657  0.05076  1.0000
  C   C17       1.0  0.45043  0.01949  0.20275  1.0000
  H   H23       1.0  0.43120  0.99748  0.23306  1.0000
  C   C18       1.0  0.47575  0.04483  0.02844  1.0000
  H   H24       1.0  0.46492  0.04300  0.32429  1.0000
  H   H25       1.0  0.40085  0.12925  0.43371  1.0000
  H   H26       1.0  0.44160  0.02797  0.33469  1.0000
  H   H27       1.0  0.44802  0.07718  0.41230  1.0000
  H   H28       1.0  0.48092  0.02990  0.40393  1.0000
  H   H29       1.0  0.48390  0.01809  0.22326  1.0000
  C   C19       1.0  0.42771  0.05912  0.44708  1.0000
  H   H30       1.0  0.43139  0.02284  0.27136  1.0000
  C   C20       1.0  0.45507  0.08782  0.00517  1.0000
  C   C21       1.0  0.40530  0.16169  0.46961  1.0000
  H   H31       1.0  0.45381  0.17971  0.37688  1.0000
  H   H32       1.0  0.45265  0.04035  0.25846  1.0000
  H   H33       1.0  0.46466  0.09483  0.02743  1.0000
  H   H34       1.0  0.43076  0.04973  0.30928  1.0000
  H   H35       1.0  0.45425  0.06538  0.30001  1.0000
  C   C22       1.0  0.38276  0.17573  0.47277  1.0000
  H   H36       1.0  0.47419  0.02354  0.46797  1.0000
  C   C23       1.0  0.44227  0.06913  0.00785  1.0000
  C   C24       1.0  0.43472  0.17488  0.44051  1.0000
  H   H37       1.0  0.48034  0.08745  0.44546  1.0000
  Fe  Fe3       1.0  0.40630  0.00004  0.09694  1.0000
  H   H38       1.0  0.40055  0.02059  0.22538  1.0000
  H   H39       1.0  0.46029  0.00907  0.40954  1.0000
  C   C25       1.0  0.46227  0.18692  0.40136  1.0000
  H   H40       1.0  0.46451  0.03092  0.20592  1.0000
  H   H41       1.0  0.34877  0.01582  0.18647  1.0000
  C   C26       1.0  0.39877  0.00647  0.22518  1.0000
  H   H42       1.0  0.42245  0.14011  0.41231  1.0000
  C   C27       1.0  0.48466  0.01522  0.25195  1.0000
  C   C28       1.0  0.46666  0.02437  0.41315  1.0000
  H   H43       1.0  0.46954  0.04940  0.05040  1.0000
  H   H44       1.0  0.45646  0.10564  0.45051  1.0000
  C   C29       1.0  0.39932  0.99763  0.19262  1.0000
  C   C30       1.0  0.45028  0.03798  0.31543  1.0000
  H   H45       1.0  0.37729  0.17056  0.44506  1.0000
  H   H46       1.0  0.47983  0.03843  0.26715  1.0000
  C   C31       1.0  0.40295  0.17957  0.47695  1.0000
  H   H47       1.0  0.38146  0.18871  0.47829  1.0000
  H   H48       1.0  0.47637  0.18819  0.39841  1.0000
  C   C32       1.0  0.44834  0.00980  0.16605  1.0000
  C   C33       1.0  0.45403  0.17604  0.43443  1.0000
  S   S5        1.0  0.42123  0.99666  0.37791  1.0000
  H   H49       1.0  0.47863  0.23266  0.01655  1.0000
  H   H50       1.0  0.41074  0.19030  0.45797  1.0000
  H   H51       1.0  0.45878  0.00446  0.16339  1.0000
  N   N2        1.0  0.42480  0.16393  0.47182  1.0000
  H   H52       1.0  0.45019  0.00591  0.32512  1.0000
  H   H53       1.0  0.41112  0.10701  0.46080  1.0000
  H   H54       1.0  0.45504  0.04226  0.98891  1.0000
  H   H55       1.0  0.42991  0.99480  0.29688  1.0000
  H   H56       1.0  0.47414  0.06495  0.99461  1.0000
  C   C34       1.0  0.41892  0.05844  0.47910  1.0000
  H   H57       1.0  0.47896  0.00007  0.25382  1.0000
  H   H58       1.0  0.43441  0.99816  0.16190  1.0000
  C   C35       1.0  0.44515  0.99992  0.29763  1.0000
  H   H59       1.0  0.40837  0.04540  0.48712  1.0000
  S   S6        1.0  0.48271  0.16071  0.48725  1.0000
  H   H60       1.0  0.48686  0.05758  0.44120  1.0000
  C   C36       1.0  0.46803  0.04663  0.52373  1.0000
  H   H61       1.0  0.44636  0.05543  0.53301  1.0000
  H   H62       1.0  0.47173  0.07436  0.94038  1.0000
  S   S7        1.0  0.46874  0.16200  0.56794  1.0000
  H   H63       1.0  0.43967  0.02739  0.56851  1.0000
  H   H64       1.0  0.44869  0.17458  0.50798  1.0000
  C   C37       1.0  0.43426  0.18009  0.57280  1.0000
  S   S8        1.0  0.46656  0.15959  0.90783  1.0000
  C   C38       1.0  0.46802  0.21303  0.83757  1.0000
  S   S9        1.0  0.48303  0.20857  0.96360  1.0000
  H   H65       1.0  0.48116  0.04588  0.86997  1.0000
  H   H66       1.0  0.42065  0.06245  0.92608  1.0000
  Fe  Fe4       1.0  0.46828  0.13991  0.52845  1.0000
  H   H67       1.0  0.44939  0.18508  0.57470  1.0000
  C   C39       1.0  0.42987  0.05971  0.97925  1.0000
  H   H68       1.0  0.43486  0.19427  0.87143  1.0000
  C   C40       1.0  0.47836  0.99344  0.53010  1.0000
  H   H69       1.0  0.46932  0.15764  0.67224  1.0000
  H   H70       1.0  0.44541  0.01600  0.94860  1.0000
  H   H71       1.0  0.47668  0.03051  0.96185  1.0000
  C   C41       1.0  0.46067  0.19982  0.70601  1.0000
  H   H72       1.0  0.45689  0.15488  0.73305  1.0000
  C   C42       1.0  0.45510  0.04029  0.91521  1.0000
  H   H73       1.0  0.45301  0.01225  0.90567  1.0000
  H   H74       1.0  0.44743  0.04617  0.93123  1.0000
  H   H75       1.0  0.46818  0.03297  0.52281  1.0000
  H   H76       1.0  0.41938  0.99535  0.90975  1.0000
  C   C43       1.0  0.48276  0.16173  0.76129  1.0000
  C   C44       1.0  0.48164  0.07880  0.88719  1.0000
  H   H77       1.0  0.45281  0.20321  0.77663  1.0000
  S   S10       1.0  0.47307  0.15982  0.80425  1.0000
  H   H78       1.0  0.45236  0.04259  0.88694  1.0000
  Fe  Fe5       1.0  0.48195  0.14528  0.93416  1.0000
  C   C45       1.0  0.47185  0.21414  0.73556  1.0000
  C   C46       1.0  0.44552  0.18951  0.87766  1.0000
  C   C47       1.0  0.46740  0.20596  0.77320  1.0000
  H   H79       1.0  0.44571  0.19441  0.71015  1.0000
  H   H80       1.0  0.46795  0.07197  0.87307  1.0000
  H   H81       1.0  0.42562  0.01192  0.87513  1.0000
  H   H82       1.0  0.42084  0.02515  0.53864  1.0000
  N   N3        1.0  0.47945  0.21758  0.80476  1.0000
  H   H83       1.0  0.43851  0.17460  0.88337  1.0000
  C   C48       1.0  0.44300  0.08822  0.94570  1.0000
  C   C49       1.0  0.48582  0.23790  0.79881  1.0000
  H   H84       1.0  0.46359  0.20624  0.67959  1.0000
  C   C50       1.0  0.47133  0.15862  0.73030  1.0000
  H   H85       1.0  0.43478  0.01373  0.52687  1.0000
  H   H86       1.0  0.45838  0.00277  0.54553  1.0000
  C   C51       1.0  0.48596  0.00060  0.76669  1.0000
  C   C52       1.0  0.44576  0.01912  0.91984  1.0000
  H   H87       1.0  0.41665  0.07397  0.52519  1.0000
  C   C53       1.0  0.42596  0.01032  0.90449  1.0000
  C   C54       1.0  0.43504  0.02635  0.53997  1.0000
  H   H88       1.0  0.42748  0.15357  0.54699  1.0000
  C   C55       1.0  0.43024  0.06948  0.94832  1.0000
  C   C56       1.0  0.42564  0.16613  0.54127  1.0000
  H   H89       1.0  0.45376  0.19719  0.90205  1.0000
  C   C57       1.0  0.45792  0.19227  0.84611  1.0000
  H   H90       1.0  0.45648  0.00702  0.78821  1.0000
  H   H91       1.0  0.46830  0.22593  0.73355  1.0000
  C   C58       1.0  0.48287  0.22619  0.49147  1.0000
  C   C59       1.0  0.48002  0.07747  0.49959  1.0000
  H   H92       1.0  0.42851  0.17352  0.59815  1.0000
  C   C60       1.0  0.47984  0.04539  0.96136  1.0000
  S   S11       1.0  0.44241  0.11217  0.51881  1.0000
  H   H93       1.0  0.43126  0.19217  0.56960  1.0000
  S   S12       1.0  0.47283  0.12089  0.97202  1.0000
  H   H94       1.0  0.44308  0.09542  0.92168  1.0000
  H   H95       1.0  0.41637  0.13695  0.49362  1.0000
  H   H96       1.0  0.44919  0.18363  0.82309  1.0000
  H   H97       1.0  0.47325  0.05243  0.55137  1.0000
  H   H98       1.0  0.48169  0.02933  0.89912  1.0000
  H   H99       1.0  0.46734  0.19208  0.77204  1.0000
  C   C61       1.0  0.47834  0.16017  0.69569  1.0000
  H   H100      1.0  0.37441  0.16539  0.49198  1.0000
  C   C62       1.0  0.44771  0.04343  0.52060  1.0000
  N   N4        1.0  0.47545  0.05018  0.92475  1.0000
  H   H101      1.0  0.46795  0.18694  0.85368  1.0000
  H   H102      1.0  0.41784  0.01674  0.91720  1.0000
  H   H103      1.0  0.47670  0.21997  0.86205  1.0000
  C   C63       1.0  0.42372  0.07471  0.50076  1.0000
  H   H104      1.0  0.46342  0.01206  0.83500  1.0000
  C   C64       1.0  0.46210  0.99534  0.52534  1.0000
  H   H105      1.0  0.45747  0.21836  0.83524  1.0000
  H   H106      1.0  0.48207  0.11198  0.49232  1.0000
  C   C65       1.0  0.46850  0.01263  0.80757  1.0000
  C   C66       1.0  0.43754  0.09188  0.49116  1.0000
  H   H107      1.0  0.46571  0.07588  0.49819  1.0000
  H   H108      1.0  0.43758  0.18906  0.50539  1.0000
  C   C67       1.0  0.45562  0.09753  0.97409  1.0000
  H   H109      1.0  0.47670  0.10209  0.90526  1.0000
  H   H110      1.0  0.41074  0.16227  0.54031  1.0000
  H   H111      1.0  0.48577  0.08432  0.52638  1.0000
  H   H112      1.0  0.40783  0.18532  0.50457  1.0000
  C   C68       1.0  0.48123  0.07074  0.92455  1.0000
  C   C69       1.0  0.47768  0.24027  0.50071  1.0000
  H   H113      1.0  0.47741  0.02729  0.80206  1.0000
  S   S13       1.0  0.41420  0.03569  0.98003  1.0000
  Fe  Fe6       1.0  0.48562  0.16412  0.86177  1.0000
  H   H114      1.0  0.46448  0.18817  0.70549  1.0000
  C   C70       1.0  0.48550  0.04430  0.89766  1.0000
  C   C71       1.0  0.47934  0.00122  0.80509  1.0000
  S   S14       1.0  0.47962  0.20862  0.52268  1.0000
  Fe  Fe7       1.0  0.48547  0.18306  0.52819  1.0000
  C   C72       1.0  0.43485  0.17426  0.50588  1.0000
  N   N5        1.0  0.48050  0.05894  0.49649  1.0000
  H   H115      1.0  0.47366  0.24057  0.79277  1.0000
  H   H116      1.0  0.47213  0.24036  0.52662  1.0000
  C   C73       1.0  0.48631  0.00026  0.94178  1.0000
  H   H117      1.0  0.44268  0.04168  0.49234  1.0000
  H   H118      1.0  0.48655  0.21920  0.72988  1.0000
  H   H119      1.0  0.39653  0.15105  0.48800  1.0000
  Fe  Fe8       1.0  0.00165  0.44061  0.43785  1.0000
  H   H120      1.0  0.42377  0.33644  0.12274  1.0000
  C   C74       1.0  0.37698  0.48108  0.48286  1.0000
  H   H121      1.0  0.40529  0.44524  0.37022  1.0000
  H   H122      1.0  0.40007  0.44963  0.45041  1.0000
  S   S15       1.0  0.30344  0.48558  0.40336  1.0000
  H   H123      1.0  0.26972  0.42787  0.44867  1.0000
  H   H124      1.0  0.30454  0.45728  0.07282  1.0000
  H   H125      1.0  0.44517  0.48862  0.16280  1.0000
  H   H126      1.0  0.45855  0.30608  0.11236  1.0000
  H   H127      1.0  0.46606  0.37110  0.14104  1.0000
  S   S16       1.0  0.00380  0.45624  0.06817  1.0000
  S   S17       1.0  0.47773  0.31674  0.04093  1.0000
  H   H128      1.0  0.37367  0.46291  0.08011  1.0000
  H   H129      1.0  0.08841  0.44344  0.99748  1.0000
  H   H130      1.0  0.29884  0.43822  0.48213  1.0000
  C   C75       1.0  0.37213  0.38452  0.47072  1.0000
  H   H131      1.0  0.28814  0.43394  0.41821  1.0000
  H   H132      1.0  0.43245  0.27543  0.12674  1.0000
  H   H133      1.0  0.37183  0.37122  0.47870  1.0000
  H   H134      1.0  0.38216  0.38316  0.41896  1.0000
  S   S18       1.0  0.99719  0.43893  0.16051  1.0000
  H   H135      1.0  0.48640  0.36707  0.14215  1.0000
  C   C76       1.0  0.14417  0.43698  0.01977  1.0000
  C   C77       1.0  0.43525  0.27675  0.07020  1.0000
  H   H136      1.0  0.41367  0.47740  0.39097  1.0000
  H   H137      1.0  0.16960  0.47026  0.03838  1.0000
  H   H138      1.0  0.01054  0.45331  0.23164  1.0000
  H   H139      1.0  0.14234  0.43045  0.11273  1.0000
  H   H140      1.0  0.12701  0.43902  0.06378  1.0000
  H   H141      1.0  0.35824  0.38187  0.45998  1.0000
  C   C78       1.0  0.28205  0.43951  0.43876  1.0000
  H   H142      1.0  0.15968  0.44927  0.09045  1.0000
  H   H143      1.0  0.45051  0.30683  0.27124  1.0000
  C   C79       1.0  0.46286  0.37304  0.44365  1.0000
  C   C80       1.0  0.45757  0.38756  0.44555  1.0000
  H   H144      1.0  0.39271  0.32021  0.14698  1.0000
  S   S19       1.0  0.29769  0.49252  0.04535  1.0000
  C   C81       1.0  0.35208  0.44392  0.47543  1.0000
  H   H145      1.0  0.14668  0.49026  0.01245  1.0000
  C   C82       1.0  0.42269  0.31207  0.14888  1.0000
  H   H146      1.0  0.99957  0.48015  0.14414  1.0000
  H   H147      1.0  0.43302  0.28921  0.17878  1.0000
  C   C83       1.0  0.41638  0.32118  0.11899  1.0000
  H   H148      1.0  0.42123  0.31855  0.17441  1.0000
  C   C84       1.0  0.05325  0.46243  0.01283  1.0000
  H   H149      1.0  0.29296  0.43212  0.02599  1.0000
  C   C85       1.0  0.44971  0.39095  0.47636  1.0000
  H   H150      1.0  0.45602  0.44580  0.41930  1.0000
  C   C86       1.0  0.07231  0.47386  0.01069  1.0000
  H   H151      1.0  0.45183  0.34124  0.17068  1.0000
  H   H152      1.0  0.05288  0.44580  0.43126  1.0000
  C   C87       1.0  0.39203  0.41565  0.33120  1.0000
  H   H153      1.0  0.43715  0.31753  0.22100  1.0000
  H   H154      1.0  0.35553  0.45050  0.13527  1.0000
  H   H155      1.0  0.46849  0.48072  0.42480  1.0000
  H   H156      1.0  0.33900  0.43137  0.10974  1.0000
  H   H157      1.0  0.41262  0.48235  0.43784  1.0000
  H   H158      1.0  0.38238  0.48010  0.02287  1.0000
  H   H159      1.0  0.36474  0.42264  0.09538  1.0000
  H   H160      1.0  0.46084  0.39403  0.02549  1.0000
  H   H161      1.0  0.45710  0.30060  0.17345  1.0000
  C   C88       1.0  0.99912  0.43986  0.23403  1.0000
  C   C89       1.0  0.44763  0.31257  0.21564  1.0000
  H   H162      1.0  0.31766  0.44876  0.22039  1.0000
  C   C90       1.0  0.44669  0.29926  0.24474  1.0000
  C   C91       1.0  0.06083  0.45503  0.45337  1.0000
  H   H163      1.0  0.43376  0.28458  0.04732  1.0000
  H   H164      1.0  0.47528  0.26477  0.48429  1.0000
  S   S20       1.0  0.46612  0.34266  0.47153  1.0000
  H   H165      1.0  0.38621  0.40678  0.27508  1.0000
  C   C92       1.0  0.47950  0.25421  0.47674  1.0000
  H   H166      1.0  0.39402  0.39299  0.30143  1.0000
  H   H167      1.0  0.13635  0.42497  0.00115  1.0000
  H   H168      1.0  0.34179  0.46159  0.17688  1.0000
  H   H169      1.0  0.31935  0.46552  0.12894  1.0000
  C   C93       1.0  0.44480  0.30313  0.17765  1.0000
  C   C94       1.0  0.36238  0.48752  0.12990  1.0000
  H   H170      1.0  0.44295  0.31203  0.08885  1.0000
  N   N6        1.0  0.33745  0.45695  0.10024  1.0000
  H   H171      1.0  0.31024  0.44134  0.12060  1.0000
  C   C95       1.0  0.46033  0.36164  0.47260  1.0000
  H   H172      1.0  0.42556  0.26195  0.06532  1.0000
  C   C96       1.0  0.37415  0.43757  0.09390  1.0000
  H   H173      1.0  0.31934  0.43408  0.06496  1.0000
  H   H174      1.0  0.15822  0.43764  0.02125  1.0000
  C   C97       1.0  0.13532  0.43163  0.05674  1.0000
  C   C98       1.0  0.32325  0.45386  0.12808  1.0000
  C   C99       1.0  0.32818  0.45089  0.16705  1.0000
  C   C100      1.0  0.31394  0.45108  0.19280  1.0000
  C   C101      1.0  0.30223  0.44646  0.01907  1.0000
  H   H175      1.0  0.99302  0.48146  0.46208  1.0000
  H   H176      1.0  0.03324  0.48421  0.00856  1.0000
  H   H177      1.0  0.46854  0.37041  0.41953  1.0000
  C   C102      1.0  0.07987  0.46013  0.45787  1.0000
  H   H178      1.0  0.35876  0.49211  0.01918  1.0000
  C   C103      1.0  0.40620  0.47182  0.41561  1.0000
  H   H179      1.0  0.41245  0.29735  0.14972  1.0000
  H   H180      1.0  0.40633  0.42545  0.32600  1.0000
  C   C104      1.0  0.14946  0.43458  0.08722  1.0000
  C   C105      1.0  0.38533  0.40050  0.30146  1.0000
  C   C106      1.0  0.45223  0.43723  0.39394  1.0000
  H   H181      1.0  0.39182  0.32306  0.09945  1.0000
  C   C107      1.0  0.15596  0.47005  0.03216  1.0000
  Fe  Fe9       1.0  0.99687  0.43476  0.02407  1.0000
  C   C108      1.0  0.00135  0.48735  0.17076  1.0000
  C   C109      1.0  0.32731  0.44940  0.06453  1.0000
  H   H182      1.0  0.31347  0.46464  0.19304  1.0000
  H   H183      1.0  0.98961  0.38659  0.35665  1.0000
  H   H184      1.0  0.08004  0.48206  0.03407  1.0000
  H   H185      1.0  0.28533  0.46862  0.48210  1.0000
  H   H186      1.0  0.30006  0.44003  0.18493  1.0000
  H   H187      1.0  0.35755  0.44268  0.05470  1.0000
  C   C110      1.0  0.35994  0.47621  0.46465  1.0000
  H   H188      1.0  0.08636  0.45473  0.43898  1.0000
  H   H189      1.0  0.45997  0.46981  0.48576  1.0000
  H   H190      1.0  0.33455  0.45340  0.44633  1.0000
  H   H191      1.0  0.47837  0.37269  0.10096  1.0000
  H   H192      1.0  0.39164  0.46933  0.41168  1.0000
  H   H193      1.0  0.39974  0.39424  0.45372  1.0000
  H   H194      1.0  0.47029  0.33952  0.10064  1.0000
  N   N7        1.0  0.44184  0.31353  0.14691  1.0000
  H   H195      1.0  0.45025  0.34338  0.09929  1.0000
  C   C111      1.0  0.29622  0.44914  0.46952  1.0000
  C   C112      1.0  0.45616  0.33344  0.15106  1.0000
  C   C113      1.0  0.44429  0.30472  0.11261  1.0000
  H   H196      1.0  0.45299  0.42404  0.39883  1.0000
  H   H197      1.0  0.44122  0.48312  0.20910  1.0000
  C   C114      1.0  0.98996  0.42929  0.20283  1.0000
  H   H198      1.0  0.33705  0.45207  0.04266  1.0000
  H   H199      1.0  0.38762  0.30080  0.11582  1.0000
  H   H200      1.0  0.45934  0.39606  0.42275  1.0000
  H   H201      1.0  0.32197  0.47195  0.04416  1.0000
  H   H202      1.0  0.42390  0.43027  0.43459  1.0000
  H   H203      1.0  0.15677  0.42593  0.08209  1.0000
  S   S21       1.0  0.02794  0.45528  0.47455  1.0000
  C   C115      1.0  0.34957  0.47728  0.09708  1.0000
  H   H204      1.0  0.14889  0.46787  0.05785  1.0000
  Fe  Fe10      1.0  0.48258  0.33379  0.43270  1.0000
  H   H205      1.0  0.48121  0.45218  0.46837  1.0000
  C   C116      1.0  0.34755  0.45748  0.46079  1.0000
  H   H206      1.0  0.00066  0.44168  0.29199  1.0000
  C   C117      1.0  0.45397  0.38576  0.00158  1.0000
  H   H207      1.0  0.04655  0.46183  0.03766  1.0000
  H   H208      1.0  0.46136  0.32463  0.21872  1.0000
  C   C118      1.0  0.31401  0.45746  0.05187  1.0000
  C   C119      1.0  0.48645  0.25427  0.44288  1.0000
  H   H209      1.0  0.43317  0.44702  0.37452  1.0000
  H   H210      1.0  0.38337  0.42315  0.32914  1.0000
  C   C120      1.0  0.39845  0.43885  0.39487  1.0000
  C   C121      1.0  0.34846  0.44636  0.10847  1.0000
  N   N8        1.0  0.39924  0.42069  0.40052  1.0000
  H   H211      1.0  0.32837  0.43721  0.16849  1.0000
  C   C122      1.0  0.39036  0.40736  0.36867  1.0000
  C   C123      1.0  0.38818  0.41233  0.43275  1.0000
  H   H212      1.0  0.41657  0.28189  0.10299  1.0000
  H   H213      1.0  0.04357  0.48576  0.07355  1.0000
  H   H214      1.0  0.41872  0.31693  0.09195  1.0000
  C   C124      1.0  0.38639  0.39300  0.44246  1.0000
  C   C125      1.0  0.47393  0.36512  0.12595  1.0000
  H   H215      1.0  0.38385  0.43638  0.39071  1.0000
  H   H216      1.0  0.39431  0.42124  0.45723  1.0000
  S   S22       1.0  0.47135  0.36436  0.02103  1.0000
  H   H217      1.0  0.37101  0.48070  0.13844  1.0000
  H   H218      1.0  0.38467  0.43907  0.07417  1.0000
  C   C126      1.0  0.41858  0.42315  0.40810  1.0000
  H   H219      1.0  0.39573  0.39678  0.36729  1.0000
  H   H220      1.0  0.37527  0.39939  0.37185  1.0000
  H   H221      1.0  0.37409  0.41145  0.42924  1.0000
  C   C127      1.0  0.36354  0.44827  0.08188  1.0000
  H   H222      1.0  0.46235  0.44476  0.37379  1.0000
  H   H223      1.0  0.41878  0.40951  0.41056  1.0000
  H   H224      1.0  0.38126  0.44304  0.12043  1.0000
  C   C128      1.0  0.43104  0.28400  0.10526  1.0000
  S   S23       1.0  0.47356  0.31262  0.38611  1.0000
  H   H225      1.0  0.35817  0.47957  0.07351  1.0000
  C   C129      1.0  0.43289  0.43349  0.38029  1.0000
  H   H226      1.0  0.12557  0.41668  0.05532  1.0000
  C   C130      1.0  0.39586  0.31595  0.12056  1.0000
  C   C131      1.0  0.46200  0.34461  0.11667  1.0000
  H   H227      1.0  0.45642  0.29321  0.23983  1.0000
  H   H228      1.0  0.42203  0.45743  0.43004  1.0000
  N   N9        1.0  0.14492  0.45456  0.00511  1.0000
  C   C132      1.0  0.40730  0.45401  0.42520  1.0000
  H   H229      1.0  0.43257  0.28793  0.24558  1.0000
  H   H230      1.0  0.27967  0.49118  0.23097  1.0000
  H   H231      1.0  0.42989  0.42488  0.35517  1.0000
  H   H232      1.0  0.37080  0.39053  0.30500  1.0000
  H   H233      1.0  0.35414  0.48831  0.15245  1.0000
  C   C133      1.0  0.37265  0.47607  0.00021  1.0000
  C   C134      1.0  0.47170  0.49058  0.44713  1.0000
  H   H234      1.0  0.34232  0.42951  0.47243  1.0000
  H   H235      1.0  0.30891  0.45937  0.45789  1.0000
  H   H236      1.0  0.29370  0.45318  0.00912  1.0000
  H   H237      1.0  0.31105  0.44605  0.99717  1.0000
  H   H238      1.0  0.44947  0.27799  0.07158  1.0000
  C   C135      1.0  0.05207  0.46156  0.47787  1.0000
  H   H239      1.0  0.46925  0.33409  0.16248  1.0000
  S   S24       1.0  0.99755  0.45178  0.38515  1.0000
  H   H240      1.0  0.00944  0.48277  0.18909  1.0000
  H   H241      1.0  0.99684  0.36929  0.36906  1.0000
  C   C136      1.0  0.09057  0.47208  0.48649  1.0000
  C   C137      1.0  0.45644  0.36991  0.99275  1.0000
  S   S25       1.0  0.44263  0.40903  0.47659  1.0000
  H   H242      1.0  0.04553  0.48491  0.42277  1.0000
  C   C138      1.0  0.99350  0.43334  0.26833  1.0000
  H   H243      1.0  0.34108  0.48474  0.09180  1.0000
  C   C139      1.0  0.35921  0.48279  0.99840  1.0000
  C   C140      1.0  0.15963  0.48979  0.02145  1.0000
  H   H244      1.0  0.10631  0.42591  0.01149  1.0000
  H   H245      1.0  0.12183  0.45916  0.02286  1.0000
  C   C141      1.0  0.12614  0.45398  0.99864  1.0000
  C   C142      1.0  0.46658  0.48440  0.48158  1.0000
  H   H246      1.0  0.48504  0.26581  0.01856  1.0000
  H   H247      1.0  0.27769  0.44929  0.42590  1.0000
  H   H248      1.0  0.48683  0.43361  0.47934  1.0000
  C   C143      1.0  0.11000  0.43484  0.98814  1.0000
  C   C144      1.0  0.44739  0.35939  0.96168  1.0000
  C   C145      1.0  0.09697  0.41896  0.62104  1.0000
  S   S26       1.0  0.42607  0.44457  0.50328  1.0000
  H   H249      1.0  0.41387  0.34305  0.82207  1.0000
  Fe  Fe11      1.0  0.40144  0.43389  0.53668  1.0000
  S   S27       1.0  0.41683  0.45114  0.58582  1.0000
  H   H250      1.0  0.39016  0.39625  0.83732  1.0000
  Fe  Fe12      1.0  0.43176  0.42107  0.52144  1.0000
  S   S28       1.0  0.44924  0.43765  0.56892  1.0000
  H   H251      1.0  0.45760  0.47085  0.82121  1.0000
  Fe  Fe13      1.0  0.42308  0.42734  0.59907  1.0000
  S   S29       1.0  0.42754  0.41961  0.65563  1.0000
  Fe  Fe14      1.0  0.44178  0.46004  0.55280  1.0000
  S   S30       1.0  0.32836  0.48454  0.96724  1.0000
  S   S31       1.0  0.40579  0.40896  0.55219  1.0000
  Fe  Fe15      1.0  0.40283  0.44346  0.93521  1.0000
  S   S32       1.0  0.41647  0.46055  0.88863  1.0000
  H   H252      1.0  0.46121  0.42197  0.92938  1.0000
  Fe  Fe16      1.0  0.41709  0.41399  0.91588  1.0000
  S   S33       1.0  0.43133  0.42952  0.86808  1.0000
  S   S34       1.0  0.41895  0.38636  0.92050  1.0000
  Fe  Fe17      1.0  0.44020  0.45472  0.90414  1.0000
  S   S35       1.0  0.46942  0.47605  0.90417  1.0000
  Fe  Fe18      1.0  0.40622  0.43364  0.85650  1.0000
  S   S36       1.0  0.39346  0.43115  0.80035  1.0000
  S   S37       1.0  0.42779  0.43930  0.95290  1.0000
  S   S38       1.0  0.39079  0.41651  0.90215  1.0000
  H   H253      1.0  0.29976  0.48448  0.57547  1.0000
  C   C146      1.0  0.41122  0.37638  0.73653  1.0000
  H   H254      1.0  0.37778  0.31865  0.85726  1.0000
  C   C147      1.0  0.41785  0.42306  0.69538  1.0000
  C   C148      1.0  0.42693  0.42392  0.72845  1.0000
  C   C149      1.0  0.41970  0.42649  0.76078  1.0000
  C   C150      1.0  0.40315  0.42799  0.76039  1.0000
  C   C151      1.0  0.39406  0.42712  0.72732  1.0000
  C   C152      1.0  0.40138  0.42471  0.69494  1.0000
  H   H255      1.0  0.43973  0.42275  0.72902  1.0000
  H   H256      1.0  0.42701  0.42753  0.78594  1.0000
  H   H257      1.0  0.38125  0.42829  0.72676  1.0000
  H   H258      1.0  0.39418  0.42392  0.66969  1.0000
  H   H259      1.0  0.15660  0.47172  0.96032  1.0000
  C   C153      1.0  0.30373  0.45456  0.55303  1.0000
  C   C154      1.0  0.45464  0.47454  0.76443  1.0000
  H   H260      1.0  0.41417  0.38911  0.84380  1.0000
  C   C155      1.0  0.45082  0.39836  0.83656  1.0000
  C   C156      1.0  0.43370  0.38059  0.94868  1.0000
  C   C157      1.0  0.40333  0.36178  0.76550  1.0000
  C   C158      1.0  0.43605  0.36465  0.93998  1.0000
  C   C159      1.0  0.44815  0.47348  0.80266  1.0000
  C   C160      1.0  0.07993  0.40437  0.63763  1.0000
  H   H261      1.0  0.13053  0.46804  0.68893  1.0000
  C   C161      1.0  0.09284  0.43678  0.97583  1.0000
  H   H262      1.0  0.39300  0.45505  0.65413  1.0000
  H   H263      1.0  0.16280  0.46279  0.89839  1.0000
  H   H264      1.0  0.39952  0.33297  0.88065  1.0000
  C   C162      1.0  0.36134  0.45961  0.94320  1.0000
  H   H265      1.0  0.22202  0.48824  0.92869  1.0000
  H   H266      1.0  0.37668  0.37315  0.85104  1.0000
  H   H267      1.0  0.36196  0.45062  0.92183  1.0000
  H   H268      1.0  0.35840  0.39093  0.84381  1.0000
  H   H269      1.0  0.05100  0.48757  0.95893  1.0000
  H   H270      1.0  0.41302  0.35553  0.76844  1.0000
  N   N10       1.0  0.30116  0.46830  0.52940  1.0000
  H   H271      1.0  0.08048  0.40701  0.66705  1.0000
  C   C163      1.0  0.11799  0.45435  0.57683  1.0000
  H   H272      1.0  0.37722  0.34591  0.82461  1.0000
  C   C164      1.0  0.28883  0.45863  0.49688  1.0000
  H   H273      1.0  0.47363  0.39768  0.93925  1.0000
  H   H274      1.0  0.33360  0.46283  0.55622  1.0000
  C   C165      1.0  0.07121  0.46362  0.94917  1.0000
  S   S39       1.0  0.10582  0.48877  0.97851  1.0000
  H   H275      1.0  0.42468  0.45881  0.67106  1.0000
  C   C166      1.0  0.43397  0.38080  0.82371  1.0000
  H   H276      1.0  0.07798  0.46379  0.92457  1.0000
  C   C167      1.0  0.06279  0.47357  0.50643  1.0000
  H   H277      1.0  0.32227  0.44816  0.51819  1.0000
  H   H278      1.0  0.34997  0.37071  0.81402  1.0000
  H   H279      1.0  0.42903  0.35629  0.91627  1.0000
  H   H280      1.0  0.16128  0.46776  0.68706  1.0000
  C   C168      1.0  0.37928  0.38245  0.82842  1.0000
  C   C169      1.0  0.47860  0.46688  0.64227  1.0000
  C   C170      1.0  0.41410  0.47842  0.68510  1.0000
  N   N11       1.0  0.39998  0.36870  0.80122  1.0000
  H   H281      1.0  0.04448  0.44359  0.92826  1.0000
  H   H282      1.0  0.05624  0.47879  0.52553  1.0000
  C   C171      1.0  0.12724  0.44180  0.52160  1.0000
  H   H283      1.0  0.42098  0.39691  0.80082  1.0000
  H   H284      1.0  0.42451  0.38783  0.74607  1.0000
  S   S40       1.0  0.01886  0.43646  0.98434  1.0000
  H   H285      1.0  0.48183  0.41519  0.58547  1.0000
  C   C172      1.0  0.41701  0.38460  0.81730  1.0000
  C   C173      1.0  0.15539  0.45857  0.97112  1.0000
  H   H286      1.0  0.39027  0.35043  0.75411  1.0000
  H   H287      1.0  0.40155  0.38217  0.72886  1.0000
  H   H288      1.0  0.46296  0.39544  0.83894  1.0000
  H   H289      1.0  0.42500  0.36247  0.70766  1.0000
  C   C174      1.0  0.04298  0.45141  0.98316  1.0000
  H   H290      1.0  0.47184  0.34408  0.90508  1.0000
  H   H291      1.0  0.43390  0.47940  0.64713  1.0000
  H   H292      1.0  0.33195  0.48933  0.57239  1.0000
  H   H293      1.0  0.01362  0.46861  0.96374  1.0000
  C   C175      1.0  0.27179  0.46565  0.56033  1.0000
  C   C176      1.0  0.37375  0.46432  0.97276  1.0000
  C   C177      1.0  0.31910  0.48306  0.51750  1.0000
  H   H294      1.0  0.11340  0.42745  0.96641  1.0000
  C   C178      1.0  0.29181  0.47792  0.55007  1.0000
  C   C179      1.0  0.34767  0.46603  0.94180  1.0000
  H   H295      1.0  0.47159  0.47721  0.70631  1.0000
  H   H296      1.0  0.37310  0.36437  0.78064  1.0000
  C   C180      1.0  0.46586  0.47590  0.64961  1.0000
  C   C181      1.0  0.36911  0.44883  0.49375  1.0000
  H   H297      1.0  0.44857  0.40314  0.86329  1.0000
  C   C182      1.0  0.05217  0.45210  0.95138  1.0000
  C   C183      1.0  0.38550  0.37547  0.79472  1.0000
  H   H298      1.0  0.36335  0.39337  0.79713  1.0000
  C   C184      1.0  0.43026  0.47409  0.67438  1.0000
  H   H299      1.0  0.39043  0.38734  0.77687  1.0000
  H   H300      1.0  0.99360  0.45392  0.90960  1.0000
  C   C185      1.0  0.41474  0.36788  0.70231  1.0000
  H   H301      1.0  0.45167  0.45749  0.69124  1.0000
  H   H302      1.0  0.33790  0.46192  0.91917  1.0000
  H   H303      1.0  0.17346  0.44927  0.91729  1.0000
  C   C186      1.0  0.08149  0.47459  0.97888  1.0000
  H   H304      1.0  0.44904  0.34713  0.95451  1.0000
  H   H305      1.0  0.43131  0.37075  0.84503  1.0000
  H   H306      1.0  0.44803  0.48669  0.81152  1.0000
  C   C187      1.0  0.45915  0.47271  0.68838  1.0000
  H   H307      1.0  0.13461  0.44304  0.62954  1.0000
  H   H308      1.0  0.42024  0.37864  0.68211  1.0000
  H   H309      1.0  0.43756  0.37552  0.79896  1.0000
  H   H310      1.0  0.14854  0.45698  0.72536  1.0000
  H   H311      1.0  0.45376  0.40951  0.81738  1.0000
  H   H312      1.0  0.39575  0.35892  0.85534  1.0000
  H   H313      1.0  0.12760  0.48427  0.62557  1.0000
  H   H314      1.0  0.14339  0.45127  0.57068  1.0000
  H   H315      1.0  0.42859  0.46311  0.73678  1.0000
  C   C188      1.0  0.39879  0.33759  0.82355  1.0000
  C   C189      1.0  0.36167  0.38445  0.82021  1.0000
  H   H316      1.0  0.08616  0.46438  0.60251  1.0000
  H   H317      1.0  0.40177  0.35654  0.69092  1.0000
  C   C190      1.0  0.08187  0.47889  0.51058  1.0000
  C   C191      1.0  0.38159  0.46754  0.49721  1.0000
  H   H318      1.0  0.12597  0.46869  0.56798  1.0000
  H   H319      1.0  0.43643  0.48683  0.74905  1.0000
  H   H320      1.0  0.44675  0.48136  0.95729  1.0000
  H   H321      1.0  0.06376  0.48508  0.89854  1.0000
  H   H322      1.0  0.44111  0.40337  0.98694  1.0000
  H   H323      1.0  0.48140  0.40471  0.89598  1.0000
  C   C192      1.0  0.39253  0.35319  0.82715  1.0000
  C   C193      1.0  0.46103  0.48969  0.96538  1.0000
  H   H324      1.0  0.06723  0.40439  0.62567  1.0000
  H   H325      1.0  0.37560  0.39390  0.49490  1.0000
  H   H326      1.0  0.16977  0.46063  0.97690  1.0000
  C   C194      1.0  0.31965  0.43415  0.56690  1.0000
  C   C195      1.0  0.14707  0.44423  0.93939  1.0000
  H   H327      1.0  0.14997  0.44282  0.68849  1.0000
  H   H328      1.0  0.26233  0.46193  0.53624  1.0000
  H   H329      1.0  0.02569  0.47450  0.92281  1.0000
  H   H330      1.0  0.44149  0.38215  0.52944  1.0000
  H   H331      1.0  0.39233  0.32891  0.79883  1.0000
  H   H332      1.0  0.11016  0.47198  0.65562  1.0000
  H   H333      1.0  0.47640  0.41479  0.53843  1.0000
  C   C196      1.0  0.14889  0.45574  0.69578  1.0000
  C   C197      1.0  0.09788  0.43843  0.62651  1.0000
  H   H334      1.0  0.47040  0.34707  0.85767  1.0000
  H   H335      1.0  0.10478  0.47972  0.57717  1.0000
  C   C198      1.0  0.39295  0.32501  0.85528  1.0000
  H   H336      1.0  0.39729  0.31379  0.85175  1.0000
  H   H337      1.0  0.38675  0.47334  0.66550  1.0000
  H   H338      1.0  0.09476  0.44020  0.65476  1.0000
  S   S41       1.0  0.37402  0.43112  0.51191  1.0000
  C   C199      1.0  0.09995  0.47626  0.60461  1.0000
  C   C200      1.0  0.12857  0.44365  0.56245  1.0000
  H   H339      1.0  0.45413  0.46971  0.62976  1.0000
  H   H340      1.0  0.08142  0.42295  0.96893  1.0000
  C   C201      1.0  0.32073  0.45079  0.54669  1.0000
  C   C202      1.0  0.13204  0.45505  0.63711  1.0000
  H   H341      1.0  0.07931  0.39046  0.63253  1.0000
  H   H342      1.0  0.10446  0.44913  0.56181  1.0000
  H   H343      1.0  0.12347  0.42963  0.57272  1.0000
  C   C203      1.0  0.01559  0.47665  0.93936  1.0000
  H   H344      1.0  0.43412  0.46208  0.80454  1.0000
  H   H345      1.0  0.29122  0.44107  0.55095  1.0000
  H   H346      1.0  0.09584  0.41524  0.59202  1.0000
  H   H347      1.0  0.30503  0.45911  0.58178  1.0000
  C   C204      1.0  0.47493  0.48960  0.94409  1.0000
  H   H348      1.0  0.47130  0.45173  0.64567  1.0000
  H   H349      1.0  0.46862  0.48599  0.76414  1.0000
  N   N12       1.0  0.11543  0.45454  0.61679  1.0000
  H   H350      1.0  0.48645  0.39056  0.55442  1.0000
  C   C205      1.0  0.34635  0.47745  0.96958  1.0000
  H   H351      1.0  0.40856  0.47239  0.71096  1.0000
  H   H352      1.0  0.27350  0.47922  0.61253  1.0000
  H   H353      1.0  0.40170  0.49235  0.93246  1.0000
  H   H354      1.0  0.39475  0.47159  0.51118  1.0000
  N   N13       1.0  0.44710  0.48171  0.69954  1.0000
  H   H355      1.0  0.29147  0.48937  0.53444  1.0000
  H   H356      1.0  0.27555  0.44758  0.50500  1.0000
  H   H357      1.0  0.40266  0.47642  0.63073  1.0000
  H   H358      1.0  0.32708  0.47700  0.50313  1.0000
  H   H359      1.0  0.31888  0.43641  0.59610  1.0000
  H   H360      1.0  0.26629  0.48900  0.57564  1.0000
  H   H361      1.0  0.10909  0.41805  0.63347  1.0000
  H   H362      1.0  0.09558  0.44520  0.95174  1.0000
  H   H363      1.0  0.30745  0.42141  0.55715  1.0000
  H   H364      1.0  0.13390  0.45563  0.51002  1.0000
  C   C206      1.0  0.13147  0.45551  0.67854  1.0000
  H   H365      1.0  0.08599  0.43804  0.61038  1.0000
  C   C207      1.0  0.99732  0.46852  0.91777  1.0000
  H   H366      1.0  0.45068  0.35650  0.52615  1.0000
  H   H367      1.0  0.14461  0.46732  0.62955  1.0000
  C   C208      1.0  0.47496  0.43198  0.92105  1.0000
  C   C209      1.0  0.16015  0.44905  0.90852  1.0000
  C   C210      1.0  0.44093  0.47672  0.73725  1.0000
  H   H368      1.0  0.11960  0.44318  0.68772  1.0000
  H   H369      1.0  0.99824  0.47638  0.89337  1.0000
  C   C211      1.0  0.11397  0.47209  0.62726  1.0000
  S   S42       1.0  0.46316  0.48964  0.55346  1.0000
  S   S43       1.0  0.39027  0.45535  0.97757  1.0000
  C   C212      1.0  0.39820  0.47029  0.65706  1.0000
  C   C213      1.0  0.47906  0.35274  0.88263  1.0000
  H   H370      1.0  0.12670  0.46375  0.97764  1.0000
  H   H371      1.0  0.15392  0.43859  0.88613  1.0000
  H   H372      1.0  0.08980  0.48821  0.53251  1.0000
  H   H373      1.0  0.13415  0.44427  0.92888  1.0000
  H   H374      1.0  0.27061  0.45280  0.57252  1.0000
  H   H375      1.0  0.33215  0.43212  0.56232  1.0000
  C   C214      1.0  0.44282  0.39115  0.97964  1.0000
  H   H376      1.0  0.46871  0.37276  0.89130  1.0000
  S   S44       1.0  0.14027  0.48490  0.90201  1.0000
  H   H377      1.0  0.14435  0.43012  0.94696  1.0000
  H   H378      1.0  0.48305  0.46925  0.61428  1.0000
  H   H379      1.0  0.45569  0.46151  0.75786  1.0000
  C   C215      1.0  0.44751  0.37978  0.50556  1.0000
  S   S45       1.0  0.11453  0.47771  0.49102  1.0000
  H   H380      1.0  0.48429  0.44793  0.51462  1.0000
  H   H381      1.0  0.11266  0.43472  0.51157  1.0000
  H   H382      1.0  0.25060  0.46722  0.59252  1.0000
  H   H383      1.0  0.09175  0.48939  0.64779  1.0000
  C   C216      1.0  0.45275  0.36522  0.50360  1.0000
  H   H384      1.0  0.47495  0.43221  0.89140  1.0000
  C   C217      1.0  0.48239  0.37273  0.88987  1.0000
  H   H385      1.0  0.47756  0.44594  0.93172  1.0000
  C   C218      1.0  0.48589  0.40686  0.92477  1.0000
  H   H386      1.0  0.13444  0.43364  0.51224  1.0000
  C   C219      1.0  0.26522  0.47596  0.58692  1.0000
  H   H387      1.0  0.47359  0.49084  0.64488  1.0000
  H   H388      1.0  0.31637  0.49151  0.49731  1.0000
  H   H389      1.0  0.48460  0.37379  0.94748  1.0000
  C   C220      1.0  0.09765  0.49266  0.62099  1.0000
  H   H390      1.0  0.24697  0.49255  0.52473  1.0000
  Fe  Fe19      1.0  0.17603  0.68254  0.01706  1.0000
  S   S46       1.0  0.17875  0.66919  0.06787  1.0000
  C   C221      1.0  0.36372  0.57250  0.47521  1.0000
  Fe  Fe20      1.0  0.13322  0.65836  0.01344  1.0000
  S   S47       1.0  0.13373  0.64454  0.06470  1.0000
  C   C222      1.0  0.98731  0.56420  0.39896  1.0000
  Fe  Fe21      1.0  0.15420  0.67259  0.08665  1.0000
  S   S48       1.0  0.15739  0.68528  0.14387  1.0000
  Fe  Fe22      1.0  0.15817  0.64218  0.04252  1.0000
  C   C223      1.0  0.39319  0.59484  0.00814  1.0000
  S   S49       1.0  0.15213  0.68719  0.03661  1.0000
  H   H391      1.0  0.38594  0.55439  0.99867  1.0000
  Fe  Fe23      1.0  0.31858  0.51062  0.08824  1.0000
  H   H392      1.0  0.08953  0.60770  0.06969  1.0000
  Fe  Fe24      1.0  0.33724  0.54211  0.03637  1.0000
  H   H393      1.0  0.10440  0.50045  0.40573  1.0000
  Fe  Fe25      1.0  0.29504  0.51842  0.03016  1.0000
  H   H394      1.0  0.46873  0.51935  0.14771  1.0000
  H   H395      1.0  0.47086  0.70735  0.05103  1.0000
  S   S50       1.0  0.31492  0.53586  0.07535  1.0000
  S   S51       1.0  0.34205  0.51791  0.05163  1.0000
  Fe  Fe26      1.0  0.12565  0.64650  0.43252  1.0000
  S   S52       1.0  0.13127  0.63084  0.38768  1.0000
  C   C224      1.0  0.20013  0.64130  0.18730  1.0000
  Fe  Fe27      1.0  0.16479  0.67982  0.42821  1.0000
  S   S53       1.0  0.17233  0.66598  0.38248  1.0000
  H   H396      1.0  0.99069  0.57609  0.41825  1.0000
  Fe  Fe28      1.0  0.14365  0.65775  0.35917  1.0000
  S   S54       1.0  0.13462  0.65226  0.29920  1.0000
  Fe  Fe29      1.0  0.15929  0.64013  0.41347  1.0000
  S   S55       1.0  0.17313  0.62109  0.41681  1.0000
  S   S56       1.0  0.13645  0.67324  0.40326  1.0000
  C   C225      1.0  0.10144  0.54468  0.43410  1.0000
  Fe  Fe30      1.0  0.31053  0.50449  0.35656  1.0000
  H   H397      1.0  0.30871  0.59079  0.45864  1.0000
  Fe  Fe31      1.0  0.33262  0.53859  0.40540  1.0000
  S   S57       1.0  0.32702  0.52227  0.45463  1.0000
  S   S58       1.0  0.34939  0.56973  0.40607  1.0000
  C   C226      1.0  0.44614  0.49459  0.19034  1.0000
  Fe  Fe32      1.0  0.29778  0.50741  0.43261  1.0000
  C   C227      1.0  0.17434  0.59182  0.45066  1.0000
  S   S59       1.0  0.34055  0.51938  0.37342  1.0000
  S   S60       1.0  0.30307  0.52510  0.38498  1.0000
  H   H398      1.0  0.26687  0.52523  0.15571  1.0000
  H   H399      1.0  0.10754  0.60040  0.07410  1.0000
  C   C228      1.0  0.48405  0.51163  0.00761  1.0000
  H   H400      1.0  0.15410  0.61787  0.48303  1.0000
  H   H401      1.0  0.00648  0.51475  0.34089  1.0000
  H   H402      1.0  0.02243  0.49840  0.01864  1.0000
  C   C229      1.0  0.32674  0.60503  0.21475  1.0000
  H   H403      1.0  0.13460  0.50859  0.38058  1.0000
  C   C230      1.0  0.36432  0.58140  0.44337  1.0000
  H   H404      1.0  0.28379  0.52004  0.13434  1.0000
  N   N14       1.0  0.09822  0.52725  0.45318  1.0000
  H   H405      1.0  0.21322  0.69157  0.11808  1.0000
  H   H406      1.0  0.47548  0.66889  0.42456  1.0000
  H   H407      1.0  0.18146  0.66595  0.23242  1.0000
  C   C231      1.0  0.04678  0.49909  0.42007  1.0000
  H   H408      1.0  0.46332  0.66684  0.03761  1.0000
  C   C232      1.0  0.16831  0.60571  0.45208  1.0000
  H   H409      1.0  0.36730  0.51498  0.11349  1.0000
  H   H410      1.0  0.29459  0.55871  0.37907  1.0000
  C   C233      1.0  0.29430  0.53936  0.18069  1.0000
  H   H411      1.0  0.03887  0.53677  0.39978  1.0000
  C   C234      1.0  0.16215  0.60227  0.01290  1.0000
  H   H412      1.0  0.29087  0.54980  0.19390  1.0000
  H   H413      1.0  0.06620  0.68411  0.43960  1.0000
  C   C235      1.0  0.07550  0.62731  0.00561  1.0000
  S   S61       1.0  0.48289  0.64405  0.48209  1.0000
  H   H414      1.0  0.47116  0.57187  0.02795  1.0000
  H   H415      1.0  0.38412  0.51461  0.14548  1.0000
  H   H416      1.0  0.45169  0.53707  0.42666  1.0000
  H   H417      1.0  0.46819  0.69703  0.00729  1.0000
  S   S62       1.0  0.35503  0.49417  0.44773  1.0000
  C   C236      1.0  0.11363  0.52167  0.44940  1.0000
  H   H418      1.0  0.12965  0.56265  0.45650  1.0000
  H   H419      1.0  0.48687  0.58054  0.48485  1.0000
  H   H420      1.0  0.34681  0.58631  0.21725  1.0000
  H   H421      1.0  0.99422  0.52136  0.01529  1.0000
  H   H422      1.0  0.39744  0.62447  0.46972  1.0000
  H   H423      1.0  0.20170  0.63581  0.47912  1.0000
  C   C237      1.0  0.32861  0.55014  0.30271  1.0000
  H   H424      1.0  0.34383  0.54110  0.19422  1.0000
  C   C238      1.0  0.14142  0.66181  0.25641  1.0000
  C   C239      1.0  0.13204  0.65119  0.22535  1.0000
  C   C240      1.0  0.13675  0.65804  0.19082  1.0000
  C   C241      1.0  0.15084  0.67575  0.18677  1.0000
  C   C242      1.0  0.16015  0.68643  0.21783  1.0000
  C   C243      1.0  0.15560  0.67949  0.25236  1.0000
  H   H425      1.0  0.12096  0.63755  0.22804  1.0000
  H   H426      1.0  0.12927  0.64972  0.16736  1.0000
  H   H427      1.0  0.17099  0.70021  0.21514  1.0000
  H   H428      1.0  0.16288  0.68792  0.27584  1.0000
  S   S63       1.0  0.10184  0.63218  0.47040  1.0000
  H   H429      1.0  0.21439  0.61688  0.16692  1.0000
  C   C244      1.0  0.25354  0.51833  0.45162  1.0000
  C   C245      1.0  0.21651  0.62781  0.14764  1.0000
  C   C246      1.0  0.16819  0.50380  0.05287  1.0000
  C   C247      1.0  0.30202  0.57061  0.39832  1.0000
  H   H430      1.0  0.12876  0.55396  0.41175  1.0000
  H   H431      1.0  0.28338  0.54206  0.12821  1.0000
  C   C248      1.0  0.46441  0.55360  0.38287  1.0000
  H   H432      1.0  0.18162  0.59050  0.42779  1.0000
  H   H433      1.0  0.20564  0.65794  0.38978  1.0000
  H   H434      1.0  0.47384  0.55228  0.04382  1.0000
  H   H435      1.0  0.14230  0.60357  0.14601  1.0000
  C   C249      1.0  0.06304  0.57183  0.43110  1.0000
  H   H436      1.0  0.41387  0.54703  0.02128  1.0000
  C   C250      1.0  0.47163  0.68051  0.42634  1.0000
  H   H437      1.0  0.07616  0.58362  0.38176  1.0000
  C   C251      1.0  0.31313  0.57972  0.46329  1.0000
  C   C252      1.0  0.18208  0.64265  0.25881  1.0000
  H   H438      1.0  0.16730  0.63305  0.25419  1.0000
  H   H439      1.0  0.22395  0.65696  0.44283  1.0000
  C   C253      1.0  0.04812  0.62178  0.44831  1.0000
  H   H440      1.0  0.08239  0.63424  0.03065  1.0000
  H   H441      1.0  0.13498  0.50410  0.42740  1.0000
  H   H442      1.0  0.31022  0.55035  0.24264  1.0000
  C   C254      1.0  0.08081  0.51156  0.43734  1.0000
  H   H443      1.0  0.16950  0.49443  0.99976  1.0000
  H   H444      1.0  0.11964  0.59184  0.01747  1.0000
  Fe  Fe33      1.0  0.33319  0.50185  0.42209  1.0000
  H   H445      1.0  0.01224  0.56660  0.45011  1.0000
  H   H446      1.0  0.15875  0.50031  0.07538  1.0000
  H   H447      1.0  0.29126  0.52800  0.19938  1.0000
  H   H448      1.0  0.48631  0.60891  0.03205  1.0000
  C   C255      1.0  0.22244  0.66982  0.43868  1.0000
  H   H449      1.0  0.44469  0.56364  0.42873  1.0000
  S   S64       1.0  0.15701  0.65477  0.99058  1.0000
  H   H450      1.0  0.34337  0.55418  0.13186  1.0000
  C   C256      1.0  0.33429  0.57836  0.19974  1.0000
  C   C257      1.0  0.11546  0.51466  0.41137  1.0000
  H   H451      1.0  0.02635  0.54527  0.37288  1.0000
  C   C258      1.0  0.06715  0.62747  0.44473  1.0000
  H   H452      1.0  0.09396  0.55180  0.44712  1.0000
  H   H453      1.0  0.00923  0.50244  0.16748  1.0000
  H   H454      1.0  0.21426  0.65114  0.19699  1.0000
  H   H455      1.0  0.26233  0.52305  0.42920  1.0000
  H   H456      1.0  0.48498  0.58284  0.14516  1.0000
  H   H457      1.0  0.01512  0.57303  0.38402  1.0000
  H   H458      1.0  0.33246  0.61153  0.18929  1.0000
  H   H459      1.0  0.02251  0.50757  0.36224  1.0000
  C   C259      1.0  0.31473  0.54747  0.17049  1.0000
  H   H460      1.0  0.37252  0.53027  0.00107  1.0000
  H   H461      1.0  0.01764  0.53147  0.46870  1.0000
  H   H462      1.0  0.34535  0.50857  0.21263  1.0000
  C   C260      1.0  0.33102  0.50497  0.21653  1.0000
  H   H463      1.0  0.20795  0.55107  0.03140  1.0000
  N   N15       1.0  0.32935  0.55801  0.19950  1.0000
  C   C261      1.0  0.37660  0.60018  0.44152  1.0000
  H   H464      1.0  0.36515  0.54127  0.14806  1.0000
  H   H465      1.0  0.28814  0.55501  0.44285  1.0000
  S   S65       1.0  0.26850  0.52272  0.02651  1.0000
  H   H466      1.0  0.48218  0.70892  0.41175  1.0000
  H   H467      1.0  0.29476  0.57952  0.39821  1.0000
  H   H468      1.0  0.18149  0.50415  0.06218  1.0000
  H   H469      1.0  0.08404  0.58354  0.06384  1.0000
  H   H470      1.0  0.41060  0.70238  0.48023  1.0000
  H   H471      1.0  0.32767  0.58546  0.45501  1.0000
  C   C262      1.0  0.37532  0.50737  0.12138  1.0000
  S   S66       1.0  0.01554  0.60719  0.48326  1.0000
  H   H472      1.0  0.11427  0.52370  0.39060  1.0000
  H   H473      1.0  0.40457  0.54590  0.08361  1.0000
  H   H474      1.0  0.07926  0.49812  0.44763  1.0000
  H   H475      1.0  0.23171  0.69968  0.48544  1.0000
  C   C263      1.0  0.24733  0.51562  0.00043  1.0000
  H   H476      1.0  0.38142  0.54060  0.06856  1.0000
  H   H477      1.0  0.35446  0.55808  0.47702  1.0000
  C   C264      1.0  0.45121  0.73326  0.44999  1.0000
  C   C265      1.0  0.30245  0.56356  0.43569  1.0000
  H   H478      1.0  0.42102  0.59901  0.48064  1.0000
  H   H479      1.0  0.43909  0.58687  0.44751  1.0000
  H   H480      1.0  0.43708  0.50167  0.19167  1.0000
  C   C266      1.0  0.22041  0.72494  0.44210  1.0000
  H   H481      1.0  0.18561  0.55027  0.02237  1.0000
  H   H482      1.0  0.20304  0.68098  0.45103  1.0000
  C   C267      1.0  0.38656  0.54092  0.99544  1.0000
  C   C268      1.0  0.38814  0.60998  0.47129  1.0000
  C   C269      1.0  0.05072  0.50912  0.03911  1.0000
  C   C270      1.0  0.21793  0.51746  0.99081  1.0000
  N   N16       1.0  0.45726  0.56586  0.48168  1.0000
  H   H483      1.0  0.15485  0.57749  0.04209  1.0000
  C   C271      1.0  0.09453  0.59777  0.05919  1.0000
  H   H484      1.0  0.37502  0.56063  0.11967  1.0000
  C   C272      1.0  0.03910  0.61229  0.47836  1.0000
  H   H485      1.0  0.23583  0.68169  0.44611  1.0000
  C   C273      1.0  0.01030  0.55528  0.43023  1.0000
  H   H486      1.0  0.06675  0.57461  0.46018  1.0000
  H   H487      1.0  0.46519  0.53264  0.18249  1.0000
  C   C274      1.0  0.21841  0.67032  0.39870  1.0000
  H   H488      1.0  0.11345  0.57437  0.39184  1.0000
  H   H489      1.0  0.34090  0.57388  0.27091  1.0000
  C   C275      1.0  0.47366  0.69714  0.03502  1.0000
  C   C276      1.0  0.03559  0.49890  0.00935  1.0000
  H   H490      1.0  0.43275  0.66022  0.05810  1.0000
  H   H491      1.0  0.39181  0.74179  0.44027  1.0000
  C   C277      1.0  0.05671  0.61452  0.00465  1.0000
  H   H492      1.0  0.11183  0.51041  0.46778  1.0000
  H   H493      1.0  0.48065  0.54463  0.24091  1.0000
  C   C278      1.0  0.39605  0.54768  0.06169  1.0000
  H   H494      1.0  0.06401  0.52699  0.43927  1.0000
  H   H495      1.0  0.44384  0.66225  0.40725  1.0000
  S   S67       1.0  0.27507  0.50064  0.47329  1.0000
  H   H496      1.0  0.05590  0.50803  0.09605  1.0000
  H   H497      1.0  0.23644  0.53150  0.43559  1.0000
  C   C279      1.0  0.45509  0.67572  0.40048  1.0000
  C   C280      1.0  0.18420  0.65190  0.29597  1.0000
  H   H498      1.0  0.99825  0.49423  0.36636  1.0000
  H   H499      1.0  0.19426  0.65691  0.45424  1.0000
  H   H500      1.0  0.47433  0.50031  0.20020  1.0000
  H   H501      1.0  0.35925  0.57645  0.15055  1.0000
  C   C281      1.0  0.31910  0.50246  0.18659  1.0000
  H   H502      1.0  0.99860  0.54281  0.43987  1.0000
  H   H503      1.0  0.38839  0.70239  0.47704  1.0000
  C   C282      1.0  0.46156  0.67835  0.05102  1.0000
  H   H504      1.0  0.20358  0.70238  0.14864  1.0000
  H   H505      1.0  0.13681  0.58617  0.40878  1.0000
  C   C283      1.0  0.30605  0.49803  0.25708  1.0000
  C   C284      1.0  0.46996  0.55798  0.02009  1.0000
  H   H506      1.0  0.04288  0.58217  0.43989  1.0000
  C   C285      1.0  0.31915  0.58402  0.21068  1.0000
  H   H507      1.0  0.47607  0.55192  0.43381  1.0000
  C   C286      1.0  0.36988  0.55642  0.14677  1.0000
  C   C287      1.0  0.46282  0.55109  0.42318  1.0000
  H   H508      1.0  0.42017  0.50999  0.48039  1.0000
  H   H509      1.0  0.03115  0.55918  0.00757  1.0000
  H   H510      1.0  0.32499  0.53515  0.30158  1.0000
  H   H511      1.0  0.44994  0.68639  0.40287  1.0000
  H   H512      1.0  0.03365  0.49905  0.42792  1.0000
  C   C288      1.0  0.09774  0.60041  0.01928  1.0000
  C   C289      1.0  0.44119  0.67397  0.04730  1.0000
  H   H513      1.0  0.34956  0.55685  0.26490  1.0000
  H   H514      1.0  0.44203  0.73195  0.02415  1.0000
  H   H515      1.0  0.06637  0.66203  0.43098  1.0000
  H   H516      1.0  0.46496  0.67884  0.08007  1.0000
  H   H517      1.0  0.20846  0.52272  0.99937  1.0000
  C   C290      1.0  0.48126  0.50949  0.44163  1.0000
  S   S68       1.0  0.29694  0.49464  0.30045  1.0000
  C   C291      1.0  0.32319  0.54990  0.23545  1.0000
  H   H518      1.0  0.27336  0.56402  0.47922  1.0000
  H   H519      1.0  0.04933  0.61178  0.02914  1.0000
  H   H520      1.0  0.31609  0.55200  0.30793  1.0000
  H   H521      1.0  0.07392  0.63497  0.42172  1.0000
  C   C292      1.0  0.46601  0.50810  0.20076  1.0000
  C   C293      1.0  0.02639  0.53919  0.39923  1.0000
  C   C294      1.0  0.35400  0.56134  0.15338  1.0000
  C   C295      1.0  0.45426  0.72577  0.48175  1.0000
  C   C296      1.0  0.29409  0.49520  0.22706  1.0000
  S   S69       1.0  0.44793  0.70151  0.48213  1.0000
  H   H522      1.0  0.23007  0.63977  0.15373  1.0000
  C   C297      1.0  0.08178  0.67698  0.47972  1.0000
  H   H523      1.0  0.31553  0.60876  0.22177  1.0000
  C   C298      1.0  0.15891  0.58380  0.01664  1.0000
  C   C299      1.0  0.17107  0.57963  0.47876  1.0000
  H   H524      1.0  0.33815  0.58373  0.17262  1.0000
  H   H525      1.0  0.31334  0.57833  0.23653  1.0000
  H   H526      1.0  0.14546  0.52765  0.41286  1.0000
  C   C300      1.0  0.04113  0.55500  0.99513  1.0000
  H   H527      1.0  0.08157  0.51023  0.40781  1.0000
  C   C301      1.0  0.21125  0.68221  0.17274  1.0000
  H   H528      1.0  0.31647  0.53526  0.16007  1.0000
  C   C302      1.0  0.20109  0.63384  0.14924  1.0000
  C   C303      1.0  0.21412  0.69713  0.14592  1.0000
  H   H529      1.0  0.21685  0.68300  0.39274  1.0000
  H   H530      1.0  0.37717  0.60719  0.41701  1.0000
  H   H531      1.0  0.04897  0.50277  0.39164  1.0000
  C   C304      1.0  0.07473  0.67647  0.44120  1.0000
  H   H532      1.0  0.46838  0.57970  0.43319  1.0000
  H   H533      1.0  0.21659  0.62215  0.12027  1.0000
  H   H534      1.0  0.13511  0.61512  0.11302  1.0000
  H   H535      1.0  0.22792  0.70889  0.15087  1.0000
  Fe  Fe34      1.0  0.32148  0.50206  0.00810  1.0000
  H   H536      1.0  0.30802  0.57929  0.18950  1.0000
  H   H537      1.0  0.42997  0.54337  0.47314  1.0000
  S   S70       1.0  0.36403  0.56843  0.04108  1.0000
  H   H538      1.0  0.19886  0.66118  0.30303  1.0000
  C   C305      1.0  0.47315  0.52474  0.17587  1.0000
  H   H539      1.0  0.07675  0.60045  0.41506  1.0000
  H   H540      1.0  0.01103  0.63864  0.01900  1.0000
  C   C306      1.0  0.32462  0.50304  0.25160  1.0000
  C   C307      1.0  0.00987  0.51978  0.39880  1.0000
  H   H541      1.0  0.33766  0.61061  0.23644  1.0000
  H   H542      1.0  0.44527  0.72424  0.42647  1.0000
  H   H543      1.0  0.18182  0.67202  0.17148  1.0000
  H   H544      1.0  0.19001  0.63442  0.25951  1.0000
  S   S71       1.0  0.31757  0.52676  0.99022  1.0000
  H   H545      1.0  0.99271  0.55837  0.04327  1.0000
  C   C308      1.0  0.37442  0.58244  0.00486  1.0000
  H   H546      1.0  0.09161  0.58944  0.42068  1.0000
  S   S72       1.0  0.15908  0.61467  0.04970  1.0000
  H   H547      1.0  0.15798  0.63932  0.20025  1.0000
  H   H548      1.0  0.22193  0.67734  0.16860  1.0000
  C   C309      1.0  0.30058  0.49758  0.19206  1.0000
  H   H549      1.0  0.09154  0.67069  0.47941  1.0000
  H   H550      1.0  0.18990  0.66165  0.13888  1.0000
  H   H551      1.0  0.15703  0.64554  0.13841  1.0000
  H   H552      1.0  0.21339  0.68892  0.19985  1.0000
  H   H553      1.0  0.17896  0.64119  0.31628  1.0000
  C   C310      1.0  0.20037  0.55743  0.01626  1.0000
  H   H554      1.0  0.15799  0.55911  0.99055  1.0000
  H   H555      1.0  0.31984  0.53496  0.23400  1.0000
  H   H556      1.0  0.23832  0.53224  0.03312  1.0000
  C   C311      1.0  0.23488  0.52272  0.01014  1.0000
  H   H557      1.0  0.05371  0.56016  0.01296  1.0000
  H   H558      1.0  0.48591  0.57865  0.09784  1.0000
  H   H559      1.0  0.13078  0.61749  0.15941  1.0000
  C   C312      1.0  0.19170  0.66608  0.16753  1.0000
  H   H560      1.0  0.33871  0.55676  0.32548  1.0000
  C   C313      1.0  0.33698  0.55888  0.26784  1.0000
  H   H561      1.0  0.21638  0.71567  0.41866  1.0000
  H   H562      1.0  0.31621  0.57854  0.38928  1.0000
  H   H563      1.0  0.16838  0.63186  0.12520  1.0000
  H   H564      1.0  0.41411  0.73296  0.46437  1.0000
  H   H565      1.0  0.22992  0.67027  0.38337  1.0000
  C   C314      1.0  0.23875  0.52307  0.45527  1.0000
  H   H566      1.0  0.30950  0.55450  0.43427  1.0000
  C   C315      1.0  0.16739  0.63575  0.18410  1.0000
  H   H567      1.0  0.38135  0.56371  0.16686  1.0000
  H   H568      1.0  0.04166  0.54123  0.46404  1.0000
  H   H569      1.0  0.20362  0.66654  0.23740  1.0000
  C   C316      1.0  0.15926  0.63331  0.14516  1.0000
  H   H570      1.0  0.11073  0.55551  0.99842  1.0000
  H   H571      1.0  0.19626  0.62933  0.20474  1.0000
  H   H572      1.0  0.40102  0.59550  0.03247  1.0000
  C   C317      1.0  0.39909  0.53964  0.02643  1.0000
  H   H573      1.0  0.20372  0.64437  0.12893  1.0000
  H   H574      1.0  0.17612  0.66003  0.29698  1.0000
  H   H575      1.0  0.45483  0.50082  0.01346  1.0000
  H   H576      1.0  0.18807  0.62148  0.14182  1.0000
  H   H577      1.0  0.06375  0.55883  0.42330  1.0000
  H   H578      1.0  0.02802  0.52813  0.01659  1.0000
  H   H579      1.0  0.47514  0.56758  0.37726  1.0000
  H   H580      1.0  0.24857  0.74015  0.42703  1.0000
  H   H581      1.0  0.04041  0.62505  0.42793  1.0000
  C   C318      1.0  0.18901  0.65731  0.22968  1.0000
  H   H582      1.0  0.16550  0.62198  0.19307  1.0000
  C   C319      1.0  0.14071  0.61630  0.14084  1.0000
  H   H583      1.0  0.38664  0.49550  0.48610  1.0000
  N   N17       1.0  0.18712  0.64996  0.19140  1.0000
  H   H584      1.0  0.35797  0.56409  0.21046  1.0000
  S   S73       1.0  0.32803  0.50502  0.14312  1.0000
  H   H585      1.0  0.04303  0.57484  0.39540  1.0000
  H   H586      1.0  0.47304  0.54930  0.12931  1.0000
  H   H587      1.0  0.11865  0.58468  0.43697  1.0000
  H   H588      1.0  0.40000  0.56268  0.05967  1.0000
  C   C320      1.0  0.10585  0.58764  0.00393  1.0000
  H   H589      1.0  0.01114  0.51207  0.42195  1.0000
  C   C321      1.0  0.20670  0.67005  0.46116  1.0000
  N   N18       1.0  0.02752  0.55248  0.42945  1.0000
  C   C322      1.0  0.07773  0.58726  0.41090  1.0000
  H   H590      1.0  0.31637  0.55620  0.14704  1.0000
  C   C323      1.0  0.34642  0.55573  0.19116  1.0000
  C   C324      1.0  0.45812  0.56587  0.44139  1.0000
  H   H591      1.0  0.09550  0.54131  0.40614  1.0000
  C   C325      1.0  0.22675  0.51679  0.48374  1.0000
  H   H592      1.0  0.42436  0.56979  0.47713  1.0000
  H   H593      1.0  0.19944  0.73641  0.99200  1.0000
  C   C326      1.0  0.13378  0.51375  0.40797  1.0000
  H   H594      1.0  0.05881  0.50967  0.47235  1.0000
  S   S74       1.0  0.18375  0.70615  0.46252  1.0000
  C   C327      1.0  0.25667  0.50725  0.47655  1.0000
  C   C328      1.0  0.12168  0.55922  0.43067  1.0000
  H   H595      1.0  0.99656  0.52054  0.39974  1.0000
  C   C329      1.0  0.04364  0.57083  0.42347  1.0000
  H   H596      1.0  0.17080  0.51777  0.04422  1.0000
  C   C330      1.0  0.15889  0.60730  0.48172  1.0000
  H   H597      1.0  0.39582  0.52489  0.03014  1.0000
  H   H598      1.0  0.45384  0.52912  0.48050  1.0000
  C   C331      1.0  0.00404  0.56041  0.39433  1.0000
  C   C332      1.0  0.04513  0.50014  0.07504  1.0000
  H   H599      1.0  0.43849  0.68450  0.06245  1.0000
  H   H600      1.0  0.45547  0.54867  0.01176  1.0000
  H   H601      1.0  0.06384  0.50882  0.03250  1.0000
  H   H602      1.0  0.08654  0.68306  0.42373  1.0000
  C   C333      1.0  0.28136  0.53121  0.14766  1.0000
  H   H603      1.0  0.38430  0.50757  0.09934  1.0000
  C   C334      1.0  0.20729  0.72330  0.46713  1.0000
  C   C335      1.0  0.48268  0.55931  0.98978  1.0000
  C   C336      1.0  0.23873  0.73889  0.44698  1.0000
  H   H604      1.0  0.02972  0.63281  0.01071  1.0000
  H   H605      1.0  0.20562  0.57219  0.02514  1.0000
  H   H606      1.0  0.00010  0.54897  0.37384  1.0000
  C   C337      1.0  0.43676  0.58318  0.47593  1.0000
  C   C338      1.0  0.00933  0.50848  0.36494  1.0000
  H   H607      1.0  0.43682  0.67362  0.01879  1.0000
  H   H608      1.0  0.45882  0.67462  0.37249  1.0000
  H   H609      1.0  0.12712  0.53308  0.45818  1.0000
  H   H610      1.0  0.05319  0.52371  0.04307  1.0000
  C   C339      1.0  0.46560  0.50074  0.99711  1.0000
  H   H611      1.0  0.48570  0.73539  0.03369  1.0000
  C   C340      1.0  0.02983  0.54474  0.46446  1.0000
  H   H612      1.0  0.42227  0.57142  0.98884  1.0000
  H   H613      1.0  0.03196  0.50002  0.08298  1.0000
  H   H614      1.0  0.46716  0.68116  0.45367  1.0000
  C   C341      1.0  0.45208  0.73635  0.00371  1.0000
  C   C342      1.0  0.07747  0.62389  0.47138  1.0000
  H   H615      1.0  0.46832  0.54318  0.37062  1.0000
  H   H616      1.0  0.09689  0.57367  0.01323  1.0000
  S   S75       1.0  0.15329  0.65414  0.46010  1.0000
  H   H617      1.0  0.45108  0.55166  0.37027  1.0000
  H   H618      1.0  0.10729  0.61513  0.01623  1.0000
  C   C343      1.0  0.12258  0.57714  0.41619  1.0000
  H   H619      1.0  0.17588  0.56906  0.47755  1.0000
  C   C344      1.0  0.48577  0.52220  0.47069  1.0000
  H   H620      1.0  0.08437  0.59742  0.00564  1.0000
  H   H621      1.0  0.46634  0.51296  0.22891  1.0000
  H   H622      1.0  0.29118  0.49534  0.16935  1.0000
  H   H623      1.0  0.33395  0.50512  0.27436  1.0000
  S   S76       1.0  0.20812  0.52313  0.48635  1.0000
  C   C345      1.0  0.06264  0.51294  0.44420  1.0000
  S   S77       1.0  0.20310  0.70132  0.98978  1.0000
  C   C346      1.0  0.01681  0.63246  0.99898  1.0000
  H   H624      1.0  0.05960  0.53442  0.98790  1.0000
  C   C347      1.0  0.03252  0.53396  0.99014  1.0000
  H   H625      1.0  0.48505  0.70430  0.48773  1.0000
  H   H626      1.0  0.00673  0.61784  0.99319  1.0000
  H   H627      1.0  0.28964  0.58064  0.94792  1.0000
  H   H628      1.0  0.26410  0.56338  0.55828  1.0000
  S   S78       1.0  0.99743  0.57577  0.57103  1.0000
  Fe  Fe35      1.0  0.99940  0.57744  0.92938  1.0000
  S   S79       1.0  0.00028  0.56171  0.87970  1.0000
  C   C348      1.0  0.04930  0.60816  0.50439  1.0000
  C   C349      1.0  0.47493  0.51308  0.71765  1.0000
  S   S80       1.0  0.12879  0.51886  0.89349  1.0000
  Fe  Fe36      1.0  0.16843  0.50628  0.92317  1.0000
  S   S81       1.0  0.17104  0.52545  0.87845  1.0000
  H   H629      1.0  0.20274  0.59695  0.87320  1.0000
  Fe  Fe37      1.0  0.15724  0.53767  0.91496  1.0000
  H   H630      1.0  0.01430  0.54925  0.69056  1.0000
  Fe  Fe38      1.0  0.14251  0.50532  0.85965  1.0000
  C   C350      1.0  0.35342  0.62182  0.53565  1.0000
  S   S82       1.0  0.15635  0.51993  0.96067  1.0000
  C   C351      1.0  0.47831  0.65496  0.73389  1.0000
  Fe  Fe39      1.0  0.43224  0.64054  0.91381  1.0000
  C   C352      1.0  0.06507  0.68531  0.55709  1.0000
  H   H631      1.0  0.29823  0.54532  0.49292  1.0000
  Fe  Fe40      1.0  0.46367  0.65413  0.86228  1.0000
  S   S83       1.0  0.47375  0.65159  0.80654  1.0000
  Fe  Fe41      1.0  0.47032  0.64683  0.94122  1.0000
  Fe  Fe42      1.0  0.46259  0.68046  0.92286  1.0000
  S   S84       1.0  0.47290  0.71211  0.93060  1.0000
  S   S85       1.0  0.45151  0.62911  0.89597  1.0000
  S   S86       1.0  0.44294  0.66437  0.87681  1.0000
  H   H632      1.0  0.44136  0.70252  0.86155  1.0000
  S   S87       1.0  0.14005  0.51671  0.57071  1.0000
  Fe  Fe43      1.0  0.18315  0.51882  0.52050  1.0000
  S   S88       1.0  0.18549  0.53736  0.56864  1.0000
  H   H633      1.0  0.22394  0.52297  0.83525  1.0000
  Fe  Fe44      1.0  0.16378  0.51213  0.59279  1.0000
  H   H634      1.0  0.19998  0.73404  0.83242  1.0000
  Fe  Fe45      1.0  0.16166  0.54063  0.54320  1.0000
  S   S89       1.0  0.15852  0.56729  0.54562  1.0000
  H   H635      1.0  0.37406  0.57548  0.52994  1.0000
  Fe  Fe46      1.0  0.45699  0.66646  0.59315  1.0000
  S   S90       1.0  0.46193  0.67763  0.65180  1.0000
  Fe  Fe47      1.0  0.42680  0.63928  0.54188  1.0000
  C   C353      1.0  0.45647  0.50239  0.69620  1.0000
  C   C354      1.0  0.42859  0.51406  0.50587  1.0000
  H   H636      1.0  0.01827  0.57061  0.64106  1.0000
  Fe  Fe48      1.0  0.44948  0.67998  0.52042  1.0000
  H   H637      1.0  0.43522  0.73509  0.92821  1.0000
  S   S91       1.0  0.45105  0.63804  0.57042  1.0000
  S   S92       1.0  0.43173  0.66688  0.56674  1.0000
  H   H638      1.0  0.23081  0.69195  0.56578  1.0000
  H   H639      1.0  0.38527  0.73098  0.49543  1.0000
  C   C355      1.0  0.47572  0.56890  0.49774  1.0000
  H   H640      1.0  0.20314  0.73450  0.51719  1.0000
  C   C356      1.0  0.02542  0.62771  0.57495  1.0000
  H   H641      1.0  0.07271  0.66144  0.92263  1.0000
  C   C357      1.0  0.23000  0.50586  0.50887  1.0000
  H   H642      1.0  0.99895  0.59250  0.66905  1.0000
  H   H643      1.0  0.32660  0.50693  0.55495  1.0000
  C   C358      1.0  0.48023  0.60526  0.86876  1.0000
  H   H644      1.0  0.40567  0.55480  0.91366  1.0000
  C   C359      1.0  0.98959  0.58736  0.69053  1.0000
  H   H645      1.0  0.25175  0.49748  0.96283  1.0000
  S   S93       1.0  0.16875  0.50517  0.65014  1.0000
  H   H646      1.0  0.11949  0.65437  0.54735  1.0000
  H   H647      1.0  0.45464  0.54026  0.89788  1.0000
  H   H648      1.0  0.47136  0.51270  0.89395  1.0000
  C   C360      1.0  0.46841  0.65680  0.76281  1.0000
  C   C361      1.0  0.46271  0.66706  0.69280  1.0000
  C   C362      1.0  0.45258  0.66861  0.72165  1.0000
  C   C363      1.0  0.45516  0.66322  0.75624  1.0000
  H   H649      1.0  0.47516  0.54012  0.71251  1.0000
  C   C364      1.0  0.33174  0.49664  0.54782  1.0000
  C   C365      1.0  0.46786  0.72829  0.95646  1.0000
  C   C366      1.0  0.40963  0.73751  0.91968  1.0000
  C   C367      1.0  0.23613  0.72922  0.96937  1.0000
  C   C368      1.0  0.03627  0.64624  0.55798  1.0000
  C   C369      1.0  0.39176  0.60612  0.94906  1.0000
  C   C370      1.0  0.06575  0.66616  0.50444  1.0000
  H   H650      1.0  0.22640  0.73966  0.89776  1.0000
  H   H651      1.0  0.39141  0.51287  0.90054  1.0000
  H   H652      1.0  0.24047  0.71833  0.96714  1.0000
  C   C371      1.0  0.20599  0.63924  0.50776  1.0000
  C   C372      1.0  0.46090  0.51751  0.88642  1.0000
  H   H653      1.0  0.21280  0.58410  0.92658  1.0000
  H   H654      1.0  0.33581  0.51755  0.92132  1.0000
  H   H655      1.0  0.07332  0.70431  0.51309  1.0000
  H   H656      1.0  0.45868  0.50589  0.66759  1.0000
  C   C373      1.0  0.06832  0.61394  0.50092  1.0000
  C   C374      1.0  0.37490  0.58238  0.50518  1.0000
  H   H657      1.0  0.41848  0.49352  0.68746  1.0000
  C   C375      1.0  0.99648  0.58860  0.72608  1.0000
  H   H658      1.0  0.09053  0.51575  0.50490  1.0000
  H   H659      1.0  0.47203  0.73160  0.81824  1.0000
  H   H660      1.0  0.05473  0.63533  0.89449  1.0000
  S   S94       1.0  0.13149  0.49903  0.80112  1.0000
  S   S95       1.0  0.99425  0.58571  0.79908  1.0000
  H   H661      1.0  0.25533  0.72576  0.52370  1.0000
  C   C376      1.0  0.47832  0.56837  0.95707  1.0000
  H   H662      1.0  0.09145  0.70933  0.54707  1.0000
  H   H663      1.0  0.29768  0.57789  0.54870  1.0000
  H   H664      1.0  0.05680  0.71540  0.55512  1.0000
  H   H665      1.0  0.24819  0.55483  0.52015  1.0000
  H   H666      1.0  0.03782  0.55813  0.55546  1.0000
  H   H667      1.0  0.22255  0.72317  0.86215  1.0000
  H   H668      1.0  0.22823  0.73110  0.80402  1.0000
  C   C377      1.0  0.34439  0.53166  0.91218  1.0000
  N   N19       1.0  0.21060  0.67290  0.50118  1.0000
  C   C378      1.0  0.39904  0.52426  0.95615  1.0000
  H   H669      1.0  0.36515  0.59314  0.92155  1.0000
  H   H670      1.0  0.48139  0.60088  0.92464  1.0000
  C   C379      1.0  0.37366  0.53034  0.93452  1.0000
  H   H671      1.0  0.45234  0.58248  0.52282  1.0000
  H   H672      1.0  0.41173  0.52879  0.97334  1.0000
  C   C380      1.0  0.27657  0.56266  0.50764  1.0000
  H   H673      1.0  0.06716  0.58270  0.88685  1.0000
  C   C381      1.0  0.08828  0.58082  0.94625  1.0000
  S   S96       1.0  0.02308  0.59107  0.97223  1.0000
  H   H674      1.0  0.45626  0.68910  0.81952  1.0000
  C   C382      1.0  0.41181  0.50537  0.92137  1.0000
  C   C383      1.0  0.40383  0.51934  0.91871  1.0000
  C   C384      1.0  0.07577  0.62247  0.94179  1.0000
  C   C385      1.0  0.08455  0.57073  0.90883  1.0000
  H   H675      1.0  0.09126  0.54923  0.96760  1.0000
  H   H676      1.0  0.00134  0.49981  0.51942  1.0000
  H   H677      1.0  0.39680  0.73256  0.53704  1.0000
  C   C386      1.0  0.22127  0.54666  0.91292  1.0000
  C   C387      1.0  0.05709  0.60939  0.94099  1.0000
  H   H678      1.0  0.13039  0.58068  0.96487  1.0000
  N   N20       1.0  0.22653  0.56615  0.92677  1.0000
  H   H679      1.0  0.16701  0.50067  0.78109  1.0000
  H   H680      1.0  0.11674  0.57284  0.92526  1.0000
  H   H681      1.0  0.43229  0.50274  0.51273  1.0000
  C   C388      1.0  0.03188  0.55709  0.49837  1.0000
  C   C389      1.0  0.13449  0.50535  0.72880  1.0000
  C   C390      1.0  0.48025  0.51600  0.50502  1.0000
  H   H682      1.0  0.45254  0.70164  0.78378  1.0000
  H   H683      1.0  0.35190  0.51524  0.51240  1.0000
  H   H684      1.0  0.08351  0.55664  0.91137  1.0000
  H   H685      1.0  0.19395  0.56158  0.96258  1.0000
  C   C391      1.0  0.16204  0.58152  0.50878  1.0000
  C   C392      1.0  0.21305  0.73932  0.98346  1.0000
  H   H686      1.0  0.45931  0.53014  0.93668  1.0000
  H   H687      1.0  0.44711  0.50611  0.89039  1.0000
  H   H688      1.0  0.12905  0.59965  0.90223  1.0000
  H   H689      1.0  0.10684  0.53913  0.92184  1.0000
  C   C393      1.0  0.17307  0.66544  0.57084  1.0000
  C   C394      1.0  0.11586  0.57443  0.95456  1.0000
  H   H690      1.0  0.99114  0.63459  0.82633  1.0000
  C   C395      1.0  0.21842  0.66022  0.51469  1.0000
  H   H691      1.0  0.19826  0.66283  0.57215  1.0000
  C   C396      1.0  0.44162  0.54833  0.49348  1.0000
  H   H692      1.0  0.26288  0.57922  0.52593  1.0000
  H   H693      1.0  0.09597  0.54580  0.55906  1.0000
  H   H694      1.0  0.44701  0.66418  0.77781  1.0000
  C   C397      1.0  0.35148  0.50732  0.53648  1.0000
  H   H695      1.0  0.12712  0.54662  0.95127  1.0000
  H   H696      1.0  0.48350  0.52584  0.52736  1.0000
  H   H697      1.0  0.12162  0.67526  0.52765  1.0000
  C   C398      1.0  0.20239  0.55568  0.97603  1.0000
  C   C399      1.0  0.48371  0.72867  0.74762  1.0000
  C   C400      1.0  0.07192  0.50022  0.90340  1.0000
  C   C401      1.0  0.00739  0.54345  0.66407  1.0000
  H   H698      1.0  0.03298  0.55915  0.63824  1.0000
  H   H699      1.0  0.05022  0.60236  0.91613  1.0000
  H   H700      1.0  0.98744  0.55439  0.66887  1.0000
  H   H701      1.0  0.21528  0.54740  0.85575  1.0000
  H   H702      1.0  0.14891  0.59685  0.53323  1.0000
  H   H703      1.0  0.00808  0.53023  0.65811  1.0000
  C   C402      1.0  0.24673  0.57851  0.92300  1.0000
  H   H704      1.0  0.27476  0.54840  0.51178  1.0000
  C   C403      1.0  0.48178  0.57707  0.89452  1.0000
  H   H705      1.0  0.08927  0.65120  0.52454  1.0000
  H   H706      1.0  0.04807  0.53241  0.94610  1.0000
  Fe  Fe49      1.0  0.14013  0.49966  0.52229  1.0000
  H   H707      1.0  0.00728  0.64263  0.95463  1.0000
  H   H708      1.0  0.01282  0.55153  0.60890  1.0000
  C   C404      1.0  0.02056  0.64331  0.96484  1.0000
  C   C405      1.0  0.39911  0.73750  0.50930  1.0000
  H   H709      1.0  0.19646  0.54077  0.96833  1.0000
  H   H710      1.0  0.44921  0.59097  0.95604  1.0000
  H   H711      1.0  0.32554  0.55738  0.55769  1.0000
  C   C406      1.0  0.12405  0.60938  0.91345  1.0000
  H   H712      1.0  0.05477  0.56109  0.90830  1.0000
  H   H713      1.0  0.22687  0.57749  0.85457  1.0000
  C   C407      1.0  0.98719  0.54069  0.66299  1.0000
  H   H714      1.0  0.20075  0.68603  0.56662  1.0000
  H   H715      1.0  0.36466  0.51592  0.94195  1.0000
  H   H716      1.0  0.22961  0.51990  0.88079  1.0000
  C   C408      1.0  0.18942  0.71810  0.87894  1.0000
  C   C409      1.0  0.46377  0.53462  0.90935  1.0000
  H   H717      1.0  0.43580  0.55108  0.51835  1.0000
  C   C410      1.0  0.13884  0.62888  0.90773  1.0000
  C   C411      1.0  0.31126  0.55035  0.54598  1.0000
  H   H718      1.0  0.01855  0.55732  0.50370  1.0000
  H   H719      1.0  0.09906  0.68681  0.54207  1.0000
  H   H720      1.0  0.04766  0.50437  0.90041  1.0000
  C   C412      1.0  0.30495  0.52957  0.54770  1.0000
  H   H721      1.0  0.99233  0.53121  0.79680  1.0000
  H   H722      1.0  0.48117  0.58791  0.54435  1.0000
  H   H723      1.0  0.17024  0.62462  0.97692  1.0000
  H   H724      1.0  0.19347  0.63470  0.52355  1.0000
  H   H725      1.0  0.25207  0.72602  0.83821  1.0000
  C   C413      1.0  0.40187  0.60654  0.98028  1.0000
  C   C414      1.0  0.15594  0.59535  0.51009  1.0000
  C   C415      1.0  0.02881  0.63506  0.93649  1.0000
  C   C416      1.0  0.09540  0.52939  0.49245  1.0000
  H   H726      1.0  0.28262  0.58586  0.90526  1.0000
  H   H727      1.0  0.24785  0.69278  0.53506  1.0000
  H   H728      1.0  0.30222  0.55391  0.56302  1.0000
  C   C417      1.0  0.16019  0.50259  0.75742  1.0000
  C   C418      1.0  0.47369  0.71902  0.82482  1.0000
  H   H729      1.0  0.39752  0.73130  0.90067  1.0000
  H   H730      1.0  0.01117  0.59462  0.73158  1.0000
  S   S97       1.0  0.16776  0.56881  0.91683  1.0000
  H   H731      1.0  0.08305  0.62557  0.91719  1.0000
  H   H732      1.0  0.22101  0.50091  0.53096  1.0000
  H   H733      1.0  0.35647  0.63658  0.53348  1.0000
  C   C419      1.0  0.03767  0.54976  0.53128  1.0000
  H   H734      1.0  0.31260  0.52494  0.52890  1.0000
  H   H735      1.0  0.30737  0.52610  0.57526  1.0000
  H   H736      1.0  0.22822  0.54013  0.92944  1.0000
  C   C420      1.0  0.22225  0.58497  0.87397  1.0000
  H   H737      1.0  0.33627  0.53972  0.91368  1.0000
  H   H738      1.0  0.12410  0.54003  0.51334  1.0000
  S   S98       1.0  0.44215  0.65201  0.49365  1.0000
  C   C421      1.0  0.14257  0.50712  0.69524  1.0000
  C   C422      1.0  0.47043  0.49710  0.51046  1.0000
  H   H739      1.0  0.13327  0.61149  0.96917  1.0000
  H   H740      1.0  0.23412  0.59847  0.88130  1.0000
  H   H741      1.0  0.44278  0.67419  0.71725  1.0000
  C   C423      1.0  0.26033  0.57217  0.94130  1.0000
  H   H742      1.0  0.23915  0.55309  0.86671  1.0000
  C   C424      1.0  0.08922  0.67466  0.55585  1.0000
  C   C425      1.0  0.14320  0.50306  0.76015  1.0000
  C   C426      1.0  0.22551  0.49790  0.95145  1.0000
  C   C427      1.0  0.43925  0.70247  0.83204  1.0000
  H   H743      1.0  0.41414  0.53182  0.90644  1.0000
  S   S99       1.0  0.98871  0.52498  0.55028  1.0000
  C   C428      1.0  0.21489  0.57410  0.90823  1.0000
  H   H744      1.0  0.20620  0.51481  0.86714  1.0000
  H   H745      1.0  0.06398  0.56126  0.86499  1.0000
  H   H746      1.0  0.07715  0.50637  0.87745  1.0000
  H   H747      1.0  0.35764  0.49772  0.53056  1.0000
  C   C429      1.0  0.04593  0.52720  0.97363  1.0000
  H   H748      1.0  0.43783  0.57974  0.91400  1.0000
  N   N21       1.0  0.10723  0.58712  0.96371  1.0000
  H   H749      1.0  0.14110  0.63081  0.87870  1.0000
  C   C430      1.0  0.09507  0.65888  0.55025  1.0000
  H   H750      1.0  0.25798  0.55827  0.93080  1.0000
  H   H751      1.0  0.99550  0.53287  0.73026  1.0000
  C   C431      1.0  0.42288  0.72942  0.90969  1.0000
  H   H752      1.0  0.17548  0.71735  0.87473  1.0000
  C   C432      1.0  0.48422  0.53328  0.70746  1.0000
  C   C433      1.0  0.10776  0.54252  0.55498  1.0000
  H   H753      1.0  0.47154  0.72985  0.75776  1.0000
  C   C434      1.0  0.10644  0.55486  0.96972  1.0000
  H   H754      1.0  0.48174  0.58276  0.96637  1.0000
  H   H755      1.0  0.08499  0.59281  0.94407  1.0000
  H   H756      1.0  0.19254  0.71884  0.90826  1.0000
  C   C435      1.0  0.31077  0.55611  0.50685  1.0000
  H   H757      1.0  0.01831  0.61530  0.84964  1.0000
  N   N22       1.0  0.03956  0.50657  0.97247  1.0000
  H   H758      1.0  0.09175  0.67893  0.58484  1.0000
  C   C436      1.0  0.07163  0.71911  0.55991  1.0000
  C   C437      1.0  0.24802  0.71897  0.54781  1.0000
  C   C438      1.0  0.06650  0.56885  0.89132  1.0000
  H   H759      1.0  0.46404  0.73216  0.53672  1.0000
  C   C439      1.0  0.19236  0.66861  0.51717  1.0000
  H   H760      1.0  0.04262  0.60080  0.52757  1.0000
  H   H761      1.0  0.35778  0.54246  0.96346  1.0000
  C   C440      1.0  0.15920  0.50589  0.69231  1.0000
  H   H762      1.0  0.02848  0.62887  0.60428  1.0000
  H   H763      1.0  0.15204  0.63111  0.92142  1.0000
  H   H764      1.0  0.24992  0.72610  0.88588  1.0000
  H   H765      1.0  0.42649  0.68997  0.82365  1.0000
  H   H766      1.0  0.06072  0.65463  0.59270  1.0000
  H   H767      1.0  0.05977  0.64077  0.55414  1.0000
  H   H768      1.0  0.46654  0.57013  0.89125  1.0000
  H   H769      1.0  0.43049  0.55748  0.96280  1.0000
  C   C441      1.0  0.23759  0.69805  0.54088  1.0000
  C   C442      1.0  0.21303  0.73559  0.49745  1.0000
  H   H770      1.0  0.06776  0.52383  0.91881  1.0000
  S   S100      1.0  0.39984  0.61324  0.54259  1.0000
  H   H771      1.0  0.16433  0.65056  0.56398  1.0000
  H   H772      1.0  0.22985  0.55834  0.98067  1.0000
  H   H773      1.0  0.12241  0.67394  0.57599  1.0000
  C   C443      1.0  0.22328  0.73706  0.86838  1.0000
  H   H774      1.0  0.11988  0.55285  0.57086  1.0000
  C   C444      1.0  0.21312  0.50506  0.96108  1.0000
  H   H775      1.0  0.06748  0.50947  0.97451  1.0000
  H   H776      1.0  0.48397  0.69099  0.82046  1.0000
  C   C445      1.0  0.28023  0.58543  0.93439  1.0000
  Fe  Fe50      1.0  0.12832  0.49990  0.93689  1.0000
  H   H777      1.0  0.29001  0.52206  0.54062  1.0000
  H   H778      1.0  0.07766  0.57113  0.96349  1.0000
  S   S101      1.0  0.48049  0.63323  0.98425  1.0000
  S   S102      1.0  0.16044  0.52394  0.49351  1.0000
  H   H779      1.0  0.25010  0.59269  0.93394  1.0000
  H   H780      1.0  0.98703  0.50797  0.68897  1.0000
  C   C446      1.0  0.47857  0.57334  0.53869  1.0000
  C   C447      1.0  0.38715  0.60114  0.50338  1.0000
  H   H781      1.0  0.18642  0.67750  0.50547  1.0000
  C   C448      1.0  0.26215  0.56528  0.52943  1.0000
  C   C449      1.0  0.16578  0.58140  0.95444  1.0000
  H   H782      1.0  0.35989  0.51723  0.55841  1.0000
  H   H783      1.0  0.43745  0.71489  0.82505  1.0000
  H   H784      1.0  0.02876  0.61689  0.56288  1.0000
  H   H785      1.0  0.18083  0.50280  0.72187  1.0000
  S   S103      1.0  0.40177  0.62130  0.91418  1.0000
  C   C450      1.0  0.05731  0.65272  0.56333  1.0000
  C   C451      1.0  0.42342  0.56651  0.96146  1.0000
  H   H786      1.0  0.46627  0.56429  0.55308  1.0000
  H   H787      1.0  0.01045  0.62327  0.57019  1.0000
  H   H788      1.0  0.36435  0.61950  0.52231  1.0000
  H   H789      1.0  0.08443  0.53396  0.49616  1.0000
  H   H790      1.0  0.47461  0.71933  0.85456  1.0000
  C   C452      1.0  0.24247  0.50315  0.97079  1.0000
  N   N23       1.0  0.06958  0.66990  0.54438  1.0000
  Fe  Fe51      1.0  0.99345  0.58636  0.51787  1.0000
  H   H791      1.0  0.02472  0.64437  0.82726  1.0000
  H   H792      1.0  0.46320  0.56170  0.95141  1.0000
  H   H793      1.0  0.02782  0.53516  0.53506  1.0000
  H   H794      1.0  0.48605  0.60326  0.84338  1.0000
  H   H795      1.0  0.37656  0.52949  0.90585  1.0000
  H   H796      1.0  0.03208  0.64460  0.52910  1.0000
  H   H797      1.0  0.22820  0.63109  0.50268  1.0000
  C   C453      1.0  0.22349  0.69320  0.50883  1.0000
  C   C454      1.0  0.37305  0.59355  0.94562  1.0000
  H   H798      1.0  0.42928  0.59472  0.52286  1.0000
  H   H799      1.0  0.23841  0.72486  0.55509  1.0000
  C   C455      1.0  0.02206  0.49745  0.94937  1.0000
  H   H800      1.0  0.48106  0.54521  0.98296  1.0000
  H   H801      1.0  0.17349  0.66769  0.60032  1.0000
  H   H802      1.0  0.25024  0.58023  0.89450  1.0000
  C   C456      1.0  0.11219  0.54324  0.51542  1.0000
  H   H803      1.0  0.20642  0.53787  0.91600  1.0000
  C   C457      1.0  0.19256  0.67127  0.55827  1.0000
  H   H804      1.0  0.01050  0.49849  0.96309  1.0000
  H   H805      1.0  0.47868  0.70102  0.76351  1.0000
  H   H806      1.0  0.07977  0.73275  0.54841  1.0000
  H   H807      1.0  0.16679  0.67375  0.55810  1.0000
  H   H808      1.0  0.32238  0.55500  0.49340  1.0000
  C   C458      1.0  0.36442  0.58170  0.97332  1.0000
  C   C459      1.0  0.43563  0.58363  0.94152  1.0000
  C   C460      1.0  0.20750  0.58897  0.85500  1.0000
  H   H809      1.0  0.08299  0.69480  0.91201  1.0000
  H   H810      1.0  0.25834  0.72213  0.57027  1.0000
  C   C461      1.0  0.21592  0.62774  0.51878  1.0000
  H   H811      1.0  0.34774  0.53070  0.88385  1.0000
  H   H812      1.0  0.47245  0.51305  0.74666  1.0000
  H   H813      1.0  0.11152  0.60785  0.89808  1.0000
  H   H814      1.0  0.44739  0.50861  0.70523  1.0000
  H   H815      1.0  0.21317  0.59715  0.83114  1.0000
  H   H816      1.0  0.10597  0.52783  0.96327  1.0000
  C   C462      1.0  0.11993  0.60647  0.95354  1.0000
  H   H817      1.0  0.42925  0.59334  0.93999  1.0000
  Fe  Fe52      1.0  0.46700  0.65249  0.52297  1.0000
  H   H818      1.0  0.13574  0.50901  0.67162  1.0000
  H   H819      1.0  0.23820  0.73605  0.73798  1.0000
  H   H820      1.0  0.02028  0.52979  0.97181  1.0000
  C   C463      1.0  0.99058  0.49994  0.50180  1.0000
  H   H821      1.0  0.46674  0.70837  0.70619  1.0000
  H   H822      1.0  0.02315  0.50485  0.92422  1.0000
  H   H823      1.0  0.47671  0.73186  0.69255  1.0000
  H   H824      1.0  0.98992  0.53017  0.95418  1.0000
  C   C464      1.0  0.40410  0.55645  0.94280  1.0000
  H   H825      1.0  0.04082  0.67308  0.92190  1.0000
  H   H826      1.0  0.20084  0.56297  0.90152  1.0000
  C   C465      1.0  0.44606  0.53187  0.50170  1.0000
  H   H827      1.0  0.08990  0.64896  0.57197  1.0000
  H   H828      1.0  0.06630  0.68673  0.58691  1.0000
  H   H829      1.0  0.32937  0.58659  0.55078  1.0000
  N   N24       1.0  0.31201  0.57519  0.50246  1.0000
  S   S104      1.0  0.47516  0.68113  0.54770  1.0000
  H   H830      1.0  0.34996  0.57227  0.97054  1.0000
  H   H831      1.0  0.17340  0.60629  0.92547  1.0000
  H   H832      1.0  0.22015  0.63024  0.54768  1.0000
  C   C466      1.0  0.46185  0.73765  0.51193  1.0000
  H   H833      1.0  0.46203  0.52068  0.85765  1.0000
  C   C467      1.0  0.11595  0.66616  0.55044  1.0000
  C   C468      1.0  0.11194  0.54132  0.95024  1.0000
  C   C469      1.0  0.22474  0.54421  0.87313  1.0000
  C   C470      1.0  0.36194  0.54126  0.93589  1.0000
  H   H834      1.0  0.36960  0.55533  0.92595  1.0000
  C   C471      1.0  0.22090  0.52425  0.86366  1.0000
  H   H835      1.0  0.05058  0.68205  0.54949  1.0000
  H   H836      1.0  0.11606  0.55755  0.50730  1.0000
  H   H837      1.0  0.06151  0.65133  0.49736  1.0000
  H   H838      1.0  0.22144  0.66228  0.54397  1.0000
  H   H839      1.0  0.44493  0.61178  0.49415  1.0000
  H   H840      1.0  0.11417  0.61625  0.96075  1.0000
  H   H841      1.0  0.10453  0.52864  0.56508  1.0000
  H   H842      1.0  0.13453  0.63937  0.91812  1.0000
  C   C472      1.0  0.01849  0.55704  0.63634  1.0000
  H   H843      1.0  0.19551  0.57585  0.84606  1.0000
  S   S105      1.0  0.45024  0.65725  0.96081  1.0000
  H   H844      1.0  0.39935  0.70329  0.52049  1.0000
  H   H845      1.0  0.05364  0.60992  0.85324  1.0000
  H   H846      1.0  0.04956  0.64462  0.85613  1.0000
  N   N25       1.0  0.39128  0.53821  0.95753  1.0000
  H   H847      1.0  0.39808  0.56647  0.94482  1.0000
  C   C473      1.0  0.32969  0.58879  0.52153  1.0000
  C   C474      1.0  0.16798  0.50379  0.72371  1.0000
  C   C475      1.0  0.25780  0.73432  0.86352  1.0000
  H   H848      1.0  0.07611  0.61098  0.52165  1.0000
  H   H849      1.0  0.09558  0.57792  0.89025  1.0000
  C   C476      1.0  0.45552  0.70205  0.81300  1.0000
  H   H850      1.0  0.38911  0.51113  0.96736  1.0000
  H   H851      1.0  0.42725  0.73263  0.88184  1.0000
  C   C477      1.0  0.16933  0.59995  0.95091  1.0000
  H   H852      1.0  0.04431  0.61703  0.81526  1.0000
  H   H853      1.0  0.07489  0.72040  0.58920  1.0000
  C   C478      1.0  0.47544  0.65996  0.69916  1.0000
  H   H854      1.0  0.12136  0.50573  0.73051  1.0000
  H   H855      1.0  0.46498  0.59811  0.86609  1.0000
  C   C479      1.0  0.24482  0.50116  0.50527  1.0000
  H   H856      1.0  0.42442  0.73382  0.50802  1.0000
  C   C480      1.0  0.20357  0.73518  0.86152  1.0000
  C   C481      1.0  0.04770  0.66514  0.90972  1.0000
  C   C482      1.0  0.07649  0.70460  0.54222  1.0000
  H   H857      1.0  0.21551  0.70133  0.51284  1.0000
  H   H858      1.0  0.04075  0.63389  0.94931  1.0000
  H   H859      1.0  0.41506  0.50200  0.89430  1.0000
  H   H860      1.0  0.25905  0.57180  0.97073  1.0000
  H   H861      1.0  0.34146  0.58651  0.51191  1.0000
  C   C483      1.0  0.47929  0.72175  0.70850  1.0000
  H   H862      1.0  0.41601  0.71417  0.91170  1.0000
  C   C484      1.0  0.41119  0.72909  0.49250  1.0000
  H   H863      1.0  0.03204  0.65619  0.57105  1.0000
  H   H864      1.0  0.08819  0.49581  0.60346  1.0000
  H   H865      1.0  0.04447  0.56158  0.96895  1.0000
  H   H866      1.0  0.03196  0.59427  0.83183  1.0000
  H   H867      1.0  0.18936  0.70530  0.86706  1.0000
  H   H868      1.0  0.18212  0.65425  0.50950  1.0000
  S   S106      1.0  0.16270  0.49322  0.54586  1.0000
  C   C485      1.0  0.43283  0.59808  0.49465  1.0000
  H   H869      1.0  0.05165  0.55069  0.52847  1.0000
  H   H870      1.0  0.40502  0.73307  0.94689  1.0000
  H   H871      1.0  0.32434  0.61307  0.53077  1.0000
  H   H872      1.0  0.46606  0.59542  0.48801  1.0000
  C   C486      1.0  0.04084  0.60898  0.83985  1.0000
  H   H873      1.0  0.29665  0.59093  0.51251  1.0000
  S   S107      1.0  0.19181  0.49773  0.93545  1.0000
  C   C487      1.0  0.45393  0.58223  0.49338  1.0000
  H   H874      1.0  0.48669  0.57493  0.86809  1.0000
  H   H875      1.0  0.27808  0.72363  0.86775  1.0000
  H   H876      1.0  0.48471  0.50716  0.71264  1.0000
  H   H877      1.0  0.03001  0.65789  0.97236  1.0000
  H   H878      1.0  0.11105  0.50513  0.62377  1.0000
  H   H879      1.0  0.42457  0.51099  0.93875  1.0000
  C   C488      1.0  0.04725  0.60571  0.97226  1.0000
  H   H880      1.0  0.35376  0.61889  0.56444  1.0000
  H   H881      1.0  0.45446  0.53477  0.52707  1.0000
  C   C489      1.0  0.03055  0.61609  0.86490  1.0000
  H   H882      1.0  0.22870  0.57989  0.97839  1.0000
  H   H883      1.0  0.42034  0.51584  0.52756  1.0000
  S   S108      1.0  0.10836  0.64888  0.97293  1.0000
  C   C490      1.0  0.27762  0.73719  0.86935  1.0000
  H   H884      1.0  0.48366  0.65903  0.67760  1.0000
  C   C491      1.0  0.48428  0.54898  0.91104  1.0000
  C   C492      1.0  0.21829  0.72492  0.98075  1.0000
  C   C493      1.0  0.45461  0.72289  0.98251  1.0000
  C   C494      1.0  0.33460  0.60955  0.51774  1.0000
  C   C495      1.0  0.22288  0.56557  0.96625  1.0000
  C   C496      1.0  0.29623  0.57737  0.51899  1.0000
  C   C497      1.0  0.16748  0.61034  0.97997  1.0000
  S   S109      1.0  0.48412  0.67125  0.90660  1.0000
  H   H885      1.0  0.02574  0.60654  0.88716  1.0000
  H   H886      1.0  0.28356  0.59957  0.94515  1.0000
  H   H887      1.0  0.48448  0.62029  0.87338  1.0000
  H   H888      1.0  0.47867  0.55695  0.49186  1.0000
  H   H889      1.0  0.41628  0.61615  0.98321  1.0000
  C   C498      1.0  0.04313  0.63609  0.87929  1.0000
  C   C499      1.0  0.08514  0.63155  0.97406  1.0000
  C   C500      1.0  0.05987  0.50859  0.91887  1.0000
  H   H890      1.0  0.00303  0.65500  0.80148  1.0000
  H   H891      1.0  0.20650  0.61282  0.51405  1.0000
  H   H892      1.0  0.02905  0.66680  0.84589  1.0000
  C   C501      1.0  0.05460  0.50251  0.95761  1.0000
  C   C502      1.0  0.01943  0.65187  0.84534  1.0000
  H   H893      1.0  0.23198  0.66372  0.50310  1.0000
  C   C503      1.0  0.00103  0.64948  0.82873  1.0000
  N   N26       1.0  0.03416  0.64520  0.90228  1.0000
  H   H894      1.0  0.05292  0.67190  0.88418  1.0000
  H   H895      1.0  0.99512  0.65704  0.84521  1.0000
  H   H896      1.0  0.00583  0.63019  0.88255  1.0000
  C   C504      1.0  0.01710  0.64452  0.88369  1.0000
  C   C505      1.0  0.40171  0.70801  0.49265  1.0000
  H   H897      1.0  0.01839  0.62058  0.93081  1.0000
  H   H898      1.0  0.01167  0.65279  0.89944  1.0000
  H   H899      1.0  0.05365  0.66845  0.49594  1.0000
  H   H900      1.0  0.08387  0.50285  0.92183  1.0000
  C   C506      1.0  0.06486  0.66849  0.93403  1.0000
  C   C507      1.0  0.07792  0.68907  0.93835  1.0000
  H   H901      1.0  0.06093  0.66344  0.96125  1.0000
  H   H902      1.0  0.07094  0.69680  0.95080  1.0000
  H   H903      1.0  0.08997  0.69102  0.95598  1.0000
  H   H904      1.0  0.04229  0.57146  0.49548  1.0000
  H   H905      1.0  0.08972  0.69166  0.48844  1.0000
  C   C508      1.0  0.16066  0.57336  0.98749  1.0000
  H   H906      1.0  0.44640  0.70837  0.98659  1.0000
  H   H907      1.0  0.33515  0.61320  0.48927  1.0000
  Fe  Fe53      1.0  0.46556  0.83065  0.09288  1.0000
  S   S110      1.0  0.46219  0.83938  0.15052  1.0000
  Fe  Fe54      1.0  0.44607  0.82711  0.01884  1.0000
  S   S111      1.0  0.36470  0.94246  0.02746  1.0000
  H   H908      1.0  0.27408  0.81152  0.46694  1.0000
  Fe  Fe55      1.0  0.46555  0.80267  0.03443  1.0000
  S   S112      1.0  0.45924  0.77171  0.02811  1.0000
  Fe  Fe56      1.0  0.39361  0.97639  0.35572  1.0000
  S   S113      1.0  0.44287  0.80698  0.06146  1.0000
  S   S114      1.0  0.46673  0.85117  0.05182  1.0000
  Fe  Fe57      1.0  0.47110  0.82809  0.36810  1.0000
  C   C509      1.0  0.34796  0.92243  0.46801  1.0000
  Fe  Fe58      1.0  0.43794  0.82188  0.41217  1.0000
  S   S115      1.0  0.40780  0.81551  0.40604  1.0000
  Fe  Fe59      1.0  0.47601  0.85152  0.43832  1.0000
  Fe  Fe60      1.0  0.46622  0.80916  0.44053  1.0000
  C   C510      1.0  0.39309  0.97880  0.25744  1.0000
  S   S116      1.0  0.45897  0.84700  0.38696  1.0000
  S   S117      1.0  0.44862  0.80249  0.38981  1.0000
  Fe  Fe61      1.0  0.37894  0.96662  0.43112  1.0000
  S   S118      1.0  0.39223  0.95463  0.39368  1.0000
  H   H909      1.0  0.39655  0.74647  0.03180  1.0000
  C   C511      1.0  0.46395  0.84432  0.22403  1.0000
  H   H910      1.0  0.36505  0.96673  0.13185  1.0000
  C   C512      1.0  0.41628  0.86754  0.43036  1.0000
  H   H911      1.0  0.41513  0.88069  0.43266  1.0000
  C   C513      1.0  0.39406  0.81268  0.44336  1.0000
  H   H912      1.0  0.22739  0.80663  0.34949  1.0000
  H   H913      1.0  0.24410  0.82244  0.32042  1.0000
  H   H914      1.0  0.34704  0.88472  0.42252  1.0000
  H   H915      1.0  0.47653  0.93619  0.02633  1.0000
  N   N27       1.0  0.33736  0.96251  0.14295  1.0000
  C   C514      1.0  0.48667  0.89093  0.14005  1.0000
  Fe  Fe62      1.0  0.38986  0.97093  0.03465  1.0000
  C   C515      1.0  0.37413  0.79618  0.99637  1.0000
  S   S119      1.0  0.26767  0.76921  0.48082  1.0000
  C   C516      1.0  0.46324  0.76415  0.47858  1.0000
  H   H916      1.0  0.40918  0.77976  0.40713  1.0000
  C   C517      1.0  0.37656  0.81207  0.43836  1.0000
  H   H917      1.0  0.44231  0.89938  0.99821  1.0000
  H   H918      1.0  0.41450  0.87089  0.01553  1.0000
  H   H919      1.0  0.44810  0.76083  0.29888  1.0000
  H   H920      1.0  0.44022  0.82967  0.31642  1.0000
  H   H921      1.0  0.22817  0.82897  0.34234  1.0000
  S   S120      1.0  0.45829  0.99039  0.04827  1.0000
  H   H922      1.0  0.34251  0.96962  0.01761  1.0000
  C   C518      1.0  0.46751  0.83505  0.19499  1.0000
  C   C519      1.0  0.40517  0.77726  0.18009  1.0000
  H   H923      1.0  0.30758  0.86014  0.41202  1.0000
  C   C520      1.0  0.33517  0.88351  0.47379  1.0000
  H   H924      1.0  0.37863  0.78394  0.36747  1.0000
  H   H925      1.0  0.46320  0.87762  0.10237  1.0000
  H   H926      1.0  0.42260  0.76793  0.31581  1.0000
  Fe  Fe63      1.0  0.41859  0.97603  0.41859  1.0000
  H   H927      1.0  0.37595  0.94282  0.11748  1.0000
  H   H928      1.0  0.41836  0.76225  0.05262  1.0000
  C   C521      1.0  0.42635  0.82838  0.30924  1.0000
  C   C522      1.0  0.29451  0.87772  0.42201  1.0000
  H   H929      1.0  0.47949  0.90056  0.09057  1.0000
  H   H930      1.0  0.37179  0.81357  0.41190  1.0000
  H   H931      1.0  0.36308  0.91983  0.13279  1.0000
  H   H932      1.0  0.24230  0.82889  0.40133  1.0000
  C   C523      1.0  0.44918  0.98287  0.29461  1.0000
  H   H933      1.0  0.31844  0.80908  0.40487  1.0000
  C   C524      1.0  0.35093  0.91188  0.44086  1.0000
  H   H934      1.0  0.40054  0.80322  0.02310  1.0000
  C   C525      1.0  0.46797  0.84153  0.25975  1.0000
  H   H935      1.0  0.42780  0.82104  0.25452  1.0000
  H   H936      1.0  0.32787  0.94723  0.03333  1.0000
  H   H937      1.0  0.46399  0.98707  0.30044  1.0000
  H   H938      1.0  0.26812  0.84573  0.43704  1.0000
  S   S121      1.0  0.46859  0.78822  0.47893  1.0000
  H   H939      1.0  0.28962  0.93232  0.20142  1.0000
  H   H940      1.0  0.36653  0.76440  0.33648  1.0000
  H   H941      1.0  0.38550  0.76039  0.44784  1.0000
  H   H942      1.0  0.45067  0.87353  0.00371  1.0000
  C   C526      1.0  0.42831  0.84772  0.30194  1.0000
  H   H943      1.0  0.39705  0.77209  0.31185  1.0000
  H   H944      1.0  0.43573  0.85729  0.32502  1.0000
  S   S122      1.0  0.38867  0.96617  0.29696  1.0000
  H   H945      1.0  0.36795  0.84009  0.99449  1.0000
  H   H946      1.0  0.32078  0.96567  0.03580  1.0000
  H   H947      1.0  0.41353  0.81120  0.48184  1.0000
  S   S123      1.0  0.37845  0.98750  0.39161  1.0000
  H   H948      1.0  0.39837  0.76919  0.25069  1.0000
  C   C527      1.0  0.44865  0.90591  0.47852  1.0000
  C   C528      1.0  0.40749  0.76090  0.03238  1.0000
  C   C529      1.0  0.30705  0.93350  0.15718  1.0000
  H   H949      1.0  0.37573  0.78506  0.28542  1.0000
  H   H950      1.0  0.40227  0.85604  0.43209  1.0000
  H   H951      1.0  0.47508  0.96786  0.45410  1.0000
  S   S124      1.0  0.32768  0.85909  0.47558  1.0000
  H   H952      1.0  0.42691  0.77995  0.99803  1.0000
  C   C530      1.0  0.45650  0.90176  0.99241  1.0000
  H   H953      1.0  0.44189  0.95670  0.31968  1.0000
  H   H954      1.0  0.45456  0.94783  0.03442  1.0000
  C   C531      1.0  0.47257  0.89174  0.11302  1.0000
  Fe  Fe64      1.0  0.43115  0.99163  0.04803  1.0000
  H   H955      1.0  0.46539  0.90669  0.01716  1.0000
  H   H956      1.0  0.43628  0.85310  0.27773  1.0000
  H   H957      1.0  0.45301  0.75769  0.42384  1.0000
  H   H958      1.0  0.36654  0.78541  0.01433  1.0000
  C   C532      1.0  0.40146  0.91732  0.43808  1.0000
  C   C533      1.0  0.28937  0.80241  0.39719  1.0000
  H   H959      1.0  0.39752  0.97250  0.16786  1.0000
  H   H960      1.0  0.28107  0.87802  0.41707  1.0000
  H   H961      1.0  0.27185  0.82377  0.35825  1.0000
  C   C534      1.0  0.30723  0.80290  0.38382  1.0000
  H   H962      1.0  0.39120  0.91296  0.41521  1.0000
  H   H963      1.0  0.25430  0.80473  0.37768  1.0000
  H   H964      1.0  0.39920  0.76219  0.18429  1.0000
  C   C535      1.0  0.34492  0.98311  0.15093  1.0000
  C   C536      1.0  0.25029  0.82970  0.37746  1.0000
  H   H965      1.0  0.31535  0.96113  0.17627  1.0000
  H   H966      1.0  0.28932  0.85674  0.38053  1.0000
  H   H967      1.0  0.39171  0.95581  0.22466  1.0000
  H   H968      1.0  0.28719  0.84477  0.45887  1.0000
  H   H969      1.0  0.41300  0.86666  0.37249  1.0000
  H   H970      1.0  0.38104  0.90993  0.47714  1.0000
  C   C537      1.0  0.45283  0.92619  0.48505  1.0000
  C   C538      1.0  0.23669  0.82138  0.34543  1.0000
  C   C539      1.0  0.35893  0.92210  0.99961  1.0000
  C   C540      1.0  0.39370  0.96999  0.22488  1.0000
  H   H971      1.0  0.43656  0.87822  0.38949  1.0000
  H   H972      1.0  0.41456  0.84747  0.29817  1.0000
  H   H973      1.0  0.35820  0.91858  0.41762  1.0000
  N   N28       1.0  0.41388  0.79520  0.28064  1.0000
  C   C541      1.0  0.40441  0.78430  0.24655  1.0000
  C   C542      1.0  0.40150  0.78725  0.31135  1.0000
  C   C543      1.0  0.41790  0.81513  0.27594  1.0000
  C   C544      1.0  0.43173  0.79413  0.28844  1.0000
  C   C545      1.0  0.43034  0.77443  0.29195  1.0000
  C   C546      1.0  0.41649  0.78823  0.21331  1.0000
  H   H974      1.0  0.35150  0.80862  0.46311  1.0000
  C   C547      1.0  0.38374  0.79007  0.31118  1.0000
  H   H975      1.0  0.42217  0.93512  0.04977  1.0000
  H   H976      1.0  0.32511  0.87742  0.98987  1.0000
  H   H977      1.0  0.39250  0.78702  0.23879  1.0000
  H   H978      1.0  0.34733  0.98362  0.07836  1.0000
  H   H979      1.0  0.42471  0.76401  0.46490  1.0000
  H   H980      1.0  0.40912  0.79293  0.33751  1.0000
  H   H981      1.0  0.40527  0.81623  0.26654  1.0000
  H   H982      1.0  0.40166  0.77051  0.04059  1.0000
  H   H983      1.0  0.43837  0.80179  0.31396  1.0000
  H   H984      1.0  0.29841  0.88039  0.45104  1.0000
  H   H985      1.0  0.31220  0.92420  0.14470  1.0000
  H   H986      1.0  0.42259  0.80306  0.20711  1.0000
  H   H987      1.0  0.42785  0.78424  0.21755  1.0000
  H   H988      1.0  0.41780  0.82353  0.33275  1.0000
  C   C548      1.0  0.24442  0.75131  0.47713  1.0000
  H   H989      1.0  0.39393  0.78121  0.17359  1.0000
  C   C549      1.0  0.34265  0.90612  0.00552  1.0000
  C   C550      1.0  0.42577  0.93584  0.02124  1.0000
  H   H990      1.0  0.28549  0.79327  0.42027  1.0000
  C   C551      1.0  0.29192  0.82204  0.40884  1.0000
  C   C552      1.0  0.32271  0.95267  0.16934  1.0000
  C   C553      1.0  0.29563  0.92373  0.18866  1.0000
  H   H991      1.0  0.25986  0.79564  0.43266  1.0000
  H   H992      1.0  0.37372  0.93885  0.16500  1.0000
  C   C554      1.0  0.32901  0.95858  0.10526  1.0000
  N   N29       1.0  0.38620  0.86654  0.02000  1.0000
  C   C555      1.0  0.38652  0.88009  0.04901  1.0000
  C   C556      1.0  0.40154  0.86096  0.02717  1.0000
  N   N30       1.0  0.27454  0.82389  0.41626  1.0000
  C   C557      1.0  0.36782  0.84974  0.01614  1.0000
  C   C558      1.0  0.36153  0.83794  0.04945  1.0000
  C   C559      1.0  0.37249  0.88820  0.04395  1.0000
  S   S125      1.0  0.40849  0.97392  0.08277  1.0000
  C   C560      1.0  0.40706  0.85996  0.06693  1.0000
  C   C561      1.0  0.42004  0.85084  0.07007  1.0000
  C   C562      1.0  0.34186  0.82287  0.04380  1.0000
  C   C563      1.0  0.37344  0.90078  0.07598  1.0000
  S   S126      1.0  0.48038  0.82469  0.31166  1.0000
  H   H993      1.0  0.40044  0.89201  0.05146  1.0000
  H   H994      1.0  0.38422  0.87391  0.07557  1.0000
  H   H995      1.0  0.44287  0.97492  0.34976  1.0000
  H   H996      1.0  0.25853  0.84457  0.37280  1.0000
  C   C564      1.0  0.26298  0.81989  0.38177  1.0000
  H   H997      1.0  0.42628  0.85114  0.45973  1.0000
  C   C565      1.0  0.45557  0.75226  0.44840  1.0000
  H   H998      1.0  0.42620  0.94885  0.01101  1.0000
  H   H999      1.0  0.36187  0.84635  0.07357  1.0000
  H   H1000     1.0  0.37038  0.83084  0.05431  1.0000
  H   H1001     1.0  0.37559  0.89679  0.02021  1.0000
  H   H1002     1.0  0.35822  0.87713  0.04085  1.0000
  H   H1003     1.0  0.42367  0.96376  0.31776  1.0000
  C   C566      1.0  0.28022  0.84316  0.43195  1.0000
  H   H1004     1.0  0.41438  0.87414  0.07931  1.0000
  H   H1005     1.0  0.39506  0.85213  0.08301  1.0000
  H   H1006     1.0  0.43250  0.85839  0.05477  1.0000
  H   H1007     1.0  0.42436  0.85099  0.09856  1.0000
  H   H1008     1.0  0.41306  0.83625  0.05971  1.0000
  H   H1009     1.0  0.34073  0.81370  0.02024  1.0000
  H   H1010     1.0  0.33786  0.81429  0.06766  1.0000
  H   H1011     1.0  0.33216  0.82908  0.03975  1.0000
  H   H1012     1.0  0.37006  0.89295  0.10085  1.0000
  H   H1013     1.0  0.38733  0.91258  0.07936  1.0000
  H   H1014     1.0  0.36333  0.90645  0.07140  1.0000
  H   H1015     1.0  0.44173  0.80123  0.26781  1.0000
  C   C567      1.0  0.44940  0.77505  0.29658  1.0000
  C   C568      1.0  0.47141  0.97552  0.47395  1.0000
  H   H1016     1.0  0.41613  0.76146  0.39986  1.0000
  C   C569      1.0  0.45538  0.97781  0.46870  1.0000
  C   C570      1.0  0.29349  0.85909  0.40938  1.0000
  H   H1017     1.0  0.47967  0.96871  0.00779  1.0000
  C   C571      1.0  0.35314  0.95743  0.14719  1.0000
  C   C572      1.0  0.34901  0.93722  0.13701  1.0000
  C   C573      1.0  0.39333  0.80617  0.00127  1.0000
  C   C574      1.0  0.47536  0.82305  0.20224  1.0000
  H   H1018     1.0  0.28423  0.91035  0.17903  1.0000
  H   H1019     1.0  0.35682  0.85362  0.00706  1.0000
  C   C575      1.0  0.36659  0.93462  0.13820  1.0000
  H   H1020     1.0  0.41401  0.92933  0.43008  1.0000
  H   H1021     1.0  0.40479  0.90569  0.44380  1.0000
  H   H1022     1.0  0.33463  0.98811  0.14248  1.0000
  H   H1023     1.0  0.32282  0.94361  0.09781  1.0000
  H   H1024     1.0  0.25024  0.82429  0.47131  1.0000
  H   H1025     1.0  0.46417  0.89764  0.12644  1.0000
  S   S127      1.0  0.35631  0.94696  0.46627  1.0000
  H   H1026     1.0  0.31743  0.96250  0.10338  1.0000
  C   C576      1.0  0.40450  0.76460  0.40660  1.0000
  H   H1027     1.0  0.46552  0.84907  0.28161  1.0000
  H   H1028     1.0  0.34270  0.93295  0.10961  1.0000
  H   H1029     1.0  0.33988  0.92787  0.15666  1.0000
  H   H1030     1.0  0.48539  0.81089  0.24318  1.0000
  S   S128      1.0  0.40567  0.98731  0.45847  1.0000
  C   C577      1.0  0.42926  0.86598  0.46004  1.0000
  C   C578      1.0  0.34225  0.96842  0.07542  1.0000
  H   H1031     1.0  0.45776  0.78131  0.27320  1.0000
  C   C579      1.0  0.39342  0.92247  0.47060  1.0000
  C   C580      1.0  0.43874  0.96876  0.32214  1.0000
  H   H1032     1.0  0.29765  0.93531  0.13713  1.0000
  S   S129      1.0  0.44137  0.96788  0.43002  1.0000
  C   C581      1.0  0.34455  0.89262  0.44372  1.0000
  C   C582      1.0  0.24714  0.81059  0.45871  1.0000
  S   S130      1.0  0.46698  0.82141  0.98988  1.0000
  C   C583      1.0  0.47556  0.82931  0.26706  1.0000
  H   H1033     1.0  0.31137  0.81105  0.35943  1.0000
  H   H1034     1.0  0.30427  0.92090  0.20893  1.0000
  H   H1035     1.0  0.42340  0.76541  0.26799  1.0000
  H   H1036     1.0  0.44377  0.87307  0.45181  1.0000
  H   H1037     1.0  0.41416  0.78030  0.15687  1.0000
  H   H1038     1.0  0.44497  0.97573  0.26786  1.0000
  C   C584      1.0  0.36506  0.80934  0.46736  1.0000
  H   H1039     1.0  0.30520  0.78860  0.37716  1.0000
  S   S131      1.0  0.45396  0.82707  0.46403  1.0000
  H   H1040     1.0  0.30147  0.82661  0.43297  1.0000
  C   C585      1.0  0.26451  0.81001  0.44378  1.0000
  H   H1041     1.0  0.35728  0.99080  0.13517  1.0000
  H   H1042     1.0  0.27856  0.79613  0.37553  1.0000
  H   H1043     1.0  0.44178  0.92906  0.47274  1.0000
  H   H1044     1.0  0.42428  0.85333  0.38898  1.0000
  H   H1045     1.0  0.33390  0.90653  0.02647  1.0000
  H   H1046     1.0  0.39817  0.84741  0.01336  1.0000
  C   C586      1.0  0.40010  0.81076  0.47767  1.0000
  H   H1047     1.0  0.35411  0.96507  0.07614  1.0000
  H   H1048     1.0  0.35846  0.95980  0.17547  1.0000
  C   C587      1.0  0.47937  0.82025  0.23799  1.0000
  C   C588      1.0  0.39697  0.97939  0.19268  1.0000
  H   H1049     1.0  0.46590  0.93504  0.47249  1.0000
  H   H1050     1.0  0.29949  0.83135  0.38742  1.0000
  H   H1051     1.0  0.38708  0.80488  0.31563  1.0000
  H   H1052     1.0  0.45670  0.78329  0.32123  1.0000
  H   H1053     1.0  0.44387  0.92315  0.03053  1.0000
  C   C589      1.0  0.42299  0.86636  0.39309  1.0000
  C   C590      1.0  0.46246  0.75542  0.99893  1.0000
  C   C591      1.0  0.33265  0.96232  0.03837  1.0000
  H   H1054     1.0  0.33889  0.98415  0.20818  1.0000
  H   H1055     1.0  0.45812  0.85385  0.21885  1.0000
  H   H1056     1.0  0.41933  0.89445  0.48587  1.0000
  C   C592      1.0  0.48191  0.94279  0.00089  1.0000
  S   S132      1.0  0.41298  0.98709  0.99881  1.0000
  H   H1057     1.0  0.23410  0.78219  0.47502  1.0000
  C   C593      1.0  0.44451  0.93571  0.01817  1.0000
  C   C594      1.0  0.41585  0.76564  0.99577  1.0000
  H   H1058     1.0  0.38921  0.93321  0.46242  1.0000
  H   H1059     1.0  0.23633  0.80693  0.43717  1.0000
  C   C595      1.0  0.37128  0.77951  0.34089  1.0000
  H   H1060     1.0  0.36117  0.98549  0.20094  1.0000
  H   H1061     1.0  0.41668  0.78073  0.47343  1.0000
  H   H1062     1.0  0.41486  0.92388  0.00599  1.0000
  C   C596      1.0  0.41234  0.76558  0.47307  1.0000
  H   H1063     1.0  0.30510  0.88896  0.40725  1.0000
  H   H1064     1.0  0.35905  0.78235  0.34111  1.0000
  H   H1065     1.0  0.47833  0.81589  0.18033  1.0000
  H   H1066     1.0  0.32918  0.95119  0.19502  1.0000
  H   H1067     1.0  0.44685  0.90297  0.44915  1.0000
  H   H1068     1.0  0.39343  0.75819  0.38539  1.0000
  S   S133      1.0  0.48463  0.87836  0.47352  1.0000
  H   H1069     1.0  0.47892  0.88161  0.16129  1.0000
  C   C597      1.0  0.35077  0.98979  0.19067  1.0000
  C   C598      1.0  0.39714  0.75702  0.44278  1.0000
  H   H1070     1.0  0.42214  0.75619  0.98973  1.0000
  H   H1071     1.0  0.40155  0.89010  0.98832  1.0000
  C   C599      1.0  0.23895  0.79633  0.48719  1.0000
  Fe  Fe65      1.0  0.32268  0.83722  0.92244  1.0000
  S   S134      1.0  0.33604  0.82226  0.89120  1.0000
  H   H1072     1.0  0.38593  0.83799  0.56072  1.0000
  Fe  Fe66      1.0  0.28731  0.80012  0.93086  1.0000
  S   S135      1.0  0.29936  0.78401  0.90100  1.0000
  H   H1073     1.0  0.26647  0.78906  0.84690  1.0000
  Fe  Fe67      1.0  0.32543  0.80113  0.93296  1.0000
  C   C600      1.0  0.41976  0.78918  0.92941  1.0000
  Fe  Fe68      1.0  0.30869  0.80662  0.86125  1.0000
  S   S136      1.0  0.30430  0.79501  0.80279  1.0000
  C   C601      1.0  0.38283  0.90063  0.55214  1.0000
  S   S137      1.0  0.29563  0.82254  0.88988  1.0000
  Fe  Fe69      1.0  0.33091  0.80715  0.53803  1.0000
  C   C602      1.0  0.39634  0.87763  0.91914  1.0000
  S   S138      1.0  0.35649  0.80210  0.53832  1.0000
  Fe  Fe70      1.0  0.30638  0.81642  0.58732  1.0000
  S   S139      1.0  0.28963  0.81944  0.54004  1.0000
  S   S140      1.0  0.30238  0.82452  0.64495  1.0000
  Fe  Fe71      1.0  0.28951  0.79298  0.51738  1.0000
  H   H1074     1.0  0.42252  0.79177  0.55485  1.0000
  Fe  Fe72      1.0  0.31697  0.83524  0.51469  1.0000
  C   C603      1.0  0.43671  0.81837  0.89558  1.0000
  S   S141      1.0  0.30494  0.78935  0.56571  1.0000
  S   S142      1.0  0.33346  0.83388  0.56284  1.0000
  H   H1075     1.0  0.43543  0.79195  0.88097  1.0000
  H   H1076     1.0  0.37343  0.90448  0.92982  1.0000
  H   H1077     1.0  0.35372  0.88297  0.54072  1.0000
  C   C604      1.0  0.47013  0.95326  0.87409  1.0000
  H   H1078     1.0  0.43710  0.79504  0.51766  1.0000
  C   C605      1.0  0.40106  0.76369  0.96663  1.0000
  C   C606      1.0  0.44698  0.95797  0.59424  1.0000
  H   H1079     1.0  0.35941  0.89134  0.58690  1.0000
  C   C607      1.0  0.37093  0.80701  0.50156  1.0000
  H   H1080     1.0  0.38692  0.98388  0.57559  1.0000
  H   H1081     1.0  0.38428  0.88019  0.91195  1.0000
  H   H1082     1.0  0.32436  0.88723  0.52365  1.0000
  H   H1083     1.0  0.36485  0.87337  0.56981  1.0000
  H   H1084     1.0  0.37873  0.78159  0.57170  1.0000
  H   H1085     1.0  0.36824  0.76930  0.85406  1.0000
  H   H1086     1.0  0.39341  0.80670  0.53314  1.0000
  H   H1087     1.0  0.48529  0.95988  0.87232  1.0000
  H   H1088     1.0  0.47780  0.96070  0.94222  1.0000
  C   C608      1.0  0.36482  0.90481  0.95112  1.0000
  H   H1089     1.0  0.40468  0.86314  0.95713  1.0000
  H   H1090     1.0  0.40952  0.94016  0.59274  1.0000
  H   H1091     1.0  0.38990  0.74933  0.96665  1.0000
  C   C609      1.0  0.24321  0.76184  0.96359  1.0000
  C   C610      1.0  0.38653  0.75925  0.56139  1.0000
  H   H1092     1.0  0.44028  0.95462  0.53795  1.0000
  C   C611      1.0  0.46420  0.93863  0.90231  1.0000
  C   C612      1.0  0.23515  0.74640  0.80850  1.0000
  C   C613      1.0  0.36468  0.80026  0.96852  1.0000
  C   C614      1.0  0.30442  0.80388  0.75927  1.0000
  C   C615      1.0  0.30412  0.82089  0.75410  1.0000
  C   C616      1.0  0.30357  0.82693  0.71907  1.0000
  C   C617      1.0  0.30358  0.81625  0.68857  1.0000
  C   C618      1.0  0.30404  0.79931  0.69376  1.0000
  C   C619      1.0  0.30429  0.79314  0.72878  1.0000
  H   H1093     1.0  0.30410  0.82932  0.77706  1.0000
  H   H1094     1.0  0.30313  0.84001  0.71557  1.0000
  H   H1095     1.0  0.30397  0.79085  0.67079  1.0000
  H   H1096     1.0  0.30446  0.77994  0.73226  1.0000
  S   S143      1.0  0.34076  0.78751  0.96244  1.0000
  C   C620      1.0  0.39365  0.82374  0.94965  1.0000
  C   C621      1.0  0.37451  0.81402  0.94514  1.0000
  H   H1097     1.0  0.40119  0.83413  0.93100  1.0000
  H   H1098     1.0  0.36738  0.81694  0.92316  1.0000
  H   H1099     1.0  0.44932  0.93400  0.90604  1.0000
  H   H1100     1.0  0.45516  0.87696  0.51045  1.0000
  C   C622      1.0  0.43241  0.78748  0.54255  1.0000
  H   H1101     1.0  0.39537  0.76395  0.87562  1.0000
  C   C623      1.0  0.39269  0.96061  0.56226  1.0000
  H   H1102     1.0  0.37991  0.97450  0.53048  1.0000
  H   H1103     1.0  0.37928  0.95085  0.57231  1.0000
  C   C624      1.0  0.46639  0.75667  0.51025  1.0000
  C   C625      1.0  0.36406  0.88632  0.56307  1.0000
  C   C626      1.0  0.43368  0.95589  0.56277  1.0000
  H   H1104     1.0  0.41011  0.96272  0.51762  1.0000
  H   H1105     1.0  0.41240  0.91906  0.50829  1.0000
  H   H1106     1.0  0.42106  0.75933  0.56058  1.0000
  C   C627      1.0  0.25081  0.80450  0.85252  1.0000
  H   H1107     1.0  0.44121  0.95963  0.61992  1.0000
  H   H1108     1.0  0.45633  0.85912  0.57869  1.0000
  C   C628      1.0  0.38288  0.91970  0.54720  1.0000
  C   C629      1.0  0.36328  0.76692  0.88169  1.0000
  C   C630      1.0  0.41503  0.93877  0.56647  1.0000
  H   H1109     1.0  0.26146  0.81679  0.84024  1.0000
  C   C631      1.0  0.22534  0.75752  0.97473  1.0000
  C   C632      1.0  0.25244  0.75330  0.78542  1.0000
  C   C633      1.0  0.48287  0.98330  0.50461  1.0000
  H   H1110     1.0  0.26042  0.74536  0.79081  1.0000
  N   N31       1.0  0.40081  0.93499  0.53656  1.0000
  H   H1111     1.0  0.43819  0.92609  0.96252  1.0000
  H   H1112     1.0  0.45538  0.80891  0.57317  1.0000
  C   C634      1.0  0.37002  0.92130  0.97223  1.0000
  C   C635      1.0  0.46378  0.91545  0.96199  1.0000
  C   C636      1.0  0.39784  0.95185  0.52960  1.0000
  C   C637      1.0  0.24854  0.74749  0.96130  1.0000
  H   H1113     1.0  0.40422  0.87964  0.54828  1.0000
  H   H1114     1.0  0.39840  0.76571  0.58087  1.0000
  H   H1115     1.0  0.41834  0.92683  0.56879  1.0000
  H   H1116     1.0  0.37153  0.91786  0.52771  1.0000
  C   C638      1.0  0.42614  0.79732  0.89237  1.0000
  H   H1117     1.0  0.40869  0.89104  0.92387  1.0000
  C   C639      1.0  0.44915  0.79370  0.56849  1.0000
  C   C640      1.0  0.46712  0.99106  0.94232  1.0000
  H   H1118     1.0  0.35417  0.75200  0.88436  1.0000
  H   H1119     1.0  0.39463  0.77259  0.97618  1.0000
  H   H1120     1.0  0.22095  0.76838  0.97676  1.0000
  H   H1121     1.0  0.38612  0.89530  0.52706  1.0000
  H   H1122     1.0  0.46568  0.96409  0.88105  1.0000
  H   H1123     1.0  0.46597  0.85566  0.53765  1.0000
  H   H1124     1.0  0.37874  0.92347  0.57310  1.0000
  C   C641      1.0  0.47567  0.94615  0.93805  1.0000
  H   H1125     1.0  0.44871  0.82270  0.91479  1.0000
  H   H1126     1.0  0.41437  0.79397  0.87310  1.0000
  H   H1127     1.0  0.39292  0.90158  0.57366  1.0000
  H   H1128     1.0  0.22537  0.75123  0.79651  1.0000
  H   H1129     1.0  0.26813  0.76283  0.84819  1.0000
  C   C642      1.0  0.40750  0.92966  0.50289  1.0000
  C   C643      1.0  0.39079  0.97793  0.55199  1.0000
  H   H1130     1.0  0.23805  0.77245  0.88525  1.0000
  N   N32       1.0  0.40691  0.75829  0.50982  1.0000
  H   H1131     1.0  0.45001  0.83609  0.56051  1.0000
  H   H1132     1.0  0.43250  0.79302  0.94636  1.0000
  C   C644      1.0  0.34863  0.88876  0.95727  1.0000
  H   H1133     1.0  0.47225  0.76565  0.53385  1.0000
  H   H1134     1.0  0.42503  0.84472  0.54826  1.0000
  N   N33       1.0  0.46754  0.93524  0.97065  1.0000
  N   N34       1.0  0.23834  0.75165  0.84808  1.0000
  C   C645      1.0  0.44144  0.87084  0.52212  1.0000
  H   H1135     1.0  0.43480  0.84185  0.50768  1.0000
  C   C646      1.0  0.47800  0.74734  0.95126  1.0000
  C   C647      1.0  0.25641  0.75295  0.86288  1.0000
  H   H1136     1.0  0.46623  0.92670  0.89153  1.0000
  C   C648      1.0  0.38859  0.80801  0.50662  1.0000
  C   C649      1.0  0.42382  0.76629  0.53463  1.0000
  H   H1137     1.0  0.23709  0.80358  0.84478  1.0000
  H   H1138     1.0  0.41280  0.79683  0.94210  1.0000
  H   H1139     1.0  0.48111  0.96664  0.77109  1.0000
  H   H1140     1.0  0.45972  0.79005  0.55715  1.0000
  C   C650      1.0  0.45343  0.85049  0.55355  1.0000
  C   C651      1.0  0.25239  0.78714  0.83948  1.0000
  H   H1141     1.0  0.38650  0.94843  0.50916  1.0000
  C   C652      1.0  0.43734  0.85086  0.53192  1.0000
  H   H1142     1.0  0.38178  0.74805  0.90657  1.0000
  H   H1143     1.0  0.40398  0.98847  0.54257  1.0000
  C   C653      1.0  0.45003  0.93681  0.97854  1.0000
  H   H1144     1.0  0.36768  0.76192  0.59869  1.0000
  H   H1145     1.0  0.44625  0.87673  0.95763  1.0000
  N   N35       1.0  0.42748  0.87275  0.49707  1.0000
  H   H1146     1.0  0.33541  0.92115  0.51856  1.0000
  S   S144      1.0  0.31315  0.81636  0.96549  1.0000
  H   H1147     1.0  0.35507  0.77472  0.88644  1.0000
  H   H1148     1.0  0.38036  0.85286  0.94558  1.0000
  H   H1149     1.0  0.39688  0.77878  0.51915  1.0000
  H   H1150     1.0  0.22427  0.76911  0.84545  1.0000
  H   H1151     1.0  0.41964  0.94176  0.49341  1.0000
  H   H1152     1.0  0.46373  0.94681  0.84755  1.0000
  C   C654      1.0  0.37248  0.76627  0.57148  1.0000
  H   H1153     1.0  0.41475  0.86627  0.56711  1.0000
  H   H1154     1.0  0.25295  0.80642  0.88211  1.0000
  H   H1155     1.0  0.44343  0.87902  0.54764  1.0000
  S   S145      1.0  0.25790  0.78515  0.95185  1.0000
  H   H1156     1.0  0.45336  0.90939  0.93948  1.0000
  H   H1157     1.0  0.39868  0.87002  0.89617  1.0000
  C   C655      1.0  0.41904  0.75887  0.91783  1.0000
  H   H1158     1.0  0.43237  0.76437  0.93369  1.0000
  C   C656      1.0  0.33808  0.91325  0.49760  1.0000
  C   C657      1.0  0.39267  0.86604  0.95226  1.0000
  H   H1159     1.0  0.37963  0.75685  0.50512  1.0000
  C   C658      1.0  0.37945  0.77359  0.90907  1.0000
  H   H1160     1.0  0.24924  0.79845  0.50924  1.0000
  H   H1161     1.0  0.43189  0.96875  0.56233  1.0000
  H   H1162     1.0  0.42289  0.76180  0.88960  1.0000
  C   C659      1.0  0.38567  0.85158  0.55832  1.0000
  H   H1163     1.0  0.46015  0.97042  0.59122  1.0000
  C   C660      1.0  0.23754  0.76976  0.85577  1.0000
  H   H1164     1.0  0.46963  0.88445  0.97529  1.0000
  C   C661      1.0  0.33183  0.89398  0.50062  1.0000
  H   H1165     1.0  0.44177  0.82383  0.86908  1.0000
  H   H1166     1.0  0.23541  0.75862  0.52603  1.0000
  H   H1167     1.0  0.43489  0.76346  0.52326  1.0000
  H   H1168     1.0  0.26222  0.75042  0.95321  1.0000
  N   N36       1.0  0.40778  0.76863  0.92939  1.0000
  S   S146      1.0  0.34340  0.86813  0.93061  1.0000
  H   H1169     1.0  0.28312  0.74370  0.89631  1.0000
  C   C662      1.0  0.39125  0.76291  0.90390  1.0000
  C   C663      1.0  0.39241  0.76380  0.52235  1.0000
  H   H1170     1.0  0.26190  0.76803  0.79101  1.0000
  H   H1171     1.0  0.25907  0.75886  0.89085  1.0000
  H   H1172     1.0  0.45084  0.95023  0.96968  1.0000
  H   H1173     1.0  0.44995  0.94578  0.59502  1.0000
  H   H1174     1.0  0.25040  0.78625  0.80994  1.0000
  H   H1175     1.0  0.37456  0.85008  0.53854  1.0000
  H   H1176     1.0  0.38762  0.78862  0.90595  1.0000
  C   C664      1.0  0.23141  0.74933  0.50261  1.0000
  C   C665      1.0  0.40430  0.86594  0.54704  1.0000
  H   H1177     1.0  0.40325  0.96465  0.58443  1.0000
  H   H1178     1.0  0.47372  0.99090  0.75001  1.0000
  H   H1179     1.0  0.44512  0.78711  0.59456  1.0000
  H   H1180     1.0  0.43267  0.89832  0.52579  1.0000
  H   H1181     1.0  0.23989  0.75926  0.73824  1.0000
  H   H1182     1.0  0.42761  0.82453  0.90478  1.0000
  C   C666      1.0  0.45573  0.88303  0.98140  1.0000
  H   H1183     1.0  0.47658  0.91501  0.95268  1.0000
  H   H1184     1.0  0.45449  0.93000  0.51412  1.0000
  H   H1185     1.0  0.36035  0.76062  0.55236  1.0000
  H   H1186     1.0  0.37365  0.77146  0.93597  1.0000
  H   H1187     1.0  0.38249  0.93343  0.96708  1.0000
  C   C667      1.0  0.47528  0.76079  0.97211  1.0000
  H   H1188     1.0  0.38002  0.74410  0.56459  1.0000
  H   H1189     1.0  0.38253  0.85571  0.58485  1.0000
  H   H1190     1.0  0.45903  0.98534  0.91772  1.0000
  H   H1191     1.0  0.20234  0.74729  0.87364  1.0000
  H   H1192     1.0  0.22701  0.79752  0.49865  1.0000
  H   H1193     1.0  0.37753  0.87886  0.97705  1.0000
  C   C668      1.0  0.38949  0.87629  0.98508  1.0000
  C   C669      1.0  0.24714  0.75080  0.74545  1.0000
  H   H1194     1.0  0.48342  0.77533  0.96800  1.0000
  H   H1195     1.0  0.25977  0.75550  0.72989  1.0000
  H   H1196     1.0  0.28646  0.74601  0.84860  1.0000
  C   C670      1.0  0.45833  0.98867  0.97487  1.0000
  C   C671      1.0  0.45067  0.98763  0.49454  1.0000
  S   S147      1.0  0.42686  0.83370  0.98352  1.0000
  H   H1197     1.0  0.44359  0.98090  0.97524  1.0000
  H   H1198     1.0  0.47020  0.98699  0.81298  1.0000
  H   H1199     1.0  0.40452  0.84643  0.50563  1.0000
  C   C672      1.0  0.33760  0.88955  0.98475  1.0000
  C   C673      1.0  0.40306  0.82007  0.97797  1.0000
  H   H1200     1.0  0.43826  0.98927  0.49085  1.0000
  C   C674      1.0  0.40820  0.86141  0.50855  1.0000
  C   C675      1.0  0.43123  0.89283  0.49768  1.0000
  S   S148      1.0  0.31572  0.80907  0.48887  1.0000
  H   H1201     1.0  0.48654  0.90718  0.52314  1.0000
  H   H1202     1.0  0.39806  0.86328  0.49043  1.0000
  H   H1203     1.0  0.46082  0.90418  0.48801  1.0000
  Fe  Fe73      1.0  0.67274  0.19952  0.43262  1.0000
  S   S149      1.0  0.65348  0.20896  0.40546  1.0000
  S   S150      1.0  0.70380  0.21675  0.44646  1.0000
  Fe  Fe74      1.0  0.64191  0.15873  0.43256  1.0000
  S   S151      1.0  0.62104  0.16579  0.40424  1.0000
  H   H1204     1.0  0.49956  0.19392  0.03045  1.0000
  Fe  Fe75      1.0  0.64417  0.18334  0.36892  1.0000
  S   S152      1.0  0.64022  0.18862  0.30957  1.0000
  Fe  Fe76      1.0  0.63204  0.19072  0.44218  1.0000
  H   H1205     1.0  0.56550  0.10964  0.47449  1.0000
  S   S153      1.0  0.66441  0.17455  0.39463  1.0000
  H   H1206     1.0  0.56230  0.23117  0.04425  1.0000
  Fe  Fe77      1.0  0.62380  0.18231  0.04774  1.0000
  H   H1207     1.0  0.59299  0.22274  0.03001  1.0000
  S   S154      1.0  0.59523  0.18086  0.05137  1.0000
  Fe  Fe78      1.0  0.65313  0.17852  0.09512  1.0000
  S   S155      1.0  0.66943  0.17783  0.04694  1.0000
  S   S156      1.0  0.66129  0.17328  0.15187  1.0000
  Fe  Fe79      1.0  0.66452  0.20175  0.02759  1.0000
  C   C676      1.0  0.69754  0.16314  0.46311  1.0000
  Fe  Fe80      1.0  0.64194  0.15854  0.02007  1.0000
  C   C677      1.0  0.58562  0.08916  0.46210  1.0000
  S   S157      1.0  0.64955  0.20329  0.07710  1.0000
  S   S158      1.0  0.62630  0.15766  0.06903  1.0000
  C   C678      1.0  0.58318  0.18356  0.01366  1.0000
  H   H1208     1.0  0.67219  0.16128  0.48338  1.0000
  H   H1209     1.0  0.67622  0.14756  0.42196  1.0000
  H   H1210     1.0  0.70823  0.20096  0.02439  1.0000
  C   C679      1.0  0.71934  0.19668  0.01983  1.0000
  H   H1211     1.0  0.50659  0.02030  0.29209  1.0000
  H   H1212     1.0  0.51223  0.01763  0.24674  1.0000
  H   H1213     1.0  0.70362  0.23203  0.27004  1.0000
  C   C680      1.0  0.65687  0.17885  0.19609  1.0000
  C   C681      1.0  0.65076  0.19233  0.20304  1.0000
  C   C682      1.0  0.64609  0.19528  0.23797  1.0000
  C   C683      1.0  0.64763  0.18501  0.26668  1.0000
  C   C684      1.0  0.65436  0.17197  0.26001  1.0000
  C   C685      1.0  0.65898  0.16898  0.22501  1.0000
  H   H1214     1.0  0.64952  0.20037  0.18139  1.0000
  H   H1215     1.0  0.64102  0.20549  0.24266  1.0000
  H   H1216     1.0  0.65561  0.16388  0.28161  1.0000
  H   H1217     1.0  0.66381  0.15859  0.22013  1.0000
  C   C686      1.0  0.56452  0.17942  0.01610  1.0000
  S   S159      1.0  0.63806  0.18230  0.99748  1.0000
  H   H1218     1.0  0.54797  0.10661  0.41694  1.0000
  H   H1219     1.0  0.50349  0.20298  0.07611  1.0000
  C   C687      1.0  0.58135  0.17454  0.45162  1.0000
  H   H1220     1.0  0.50246  0.09090  0.46137  1.0000
  H   H1221     1.0  0.58855  0.17037  0.43213  1.0000
  H   H1222     1.0  0.55458  0.15388  0.43317  1.0000
  H   H1223     1.0  0.53283  0.20768  0.05141  1.0000
  C   C688      1.0  0.58387  0.24206  0.00692  1.0000
  C   C689      1.0  0.68365  0.22994  0.32283  1.0000
  C   C690      1.0  0.48787  0.00526  0.00625  1.0000
  H   H1224     1.0  0.61525  0.10913  0.03548  1.0000
  C   C691      1.0  0.69420  0.19938  0.31569  1.0000
  H   H1225     1.0  0.50415  0.04175  0.47389  1.0000
  H   H1226     1.0  0.69939  0.15382  0.40899  1.0000
  H   H1227     1.0  0.74296  0.19788  0.05125  1.0000
  H   H1228     1.0  0.53244  0.22955  0.06000  1.0000
  H   H1229     1.0  0.65342  0.23604  0.34039  1.0000
  H   H1230     1.0  0.55997  0.21575  0.00752  1.0000
  H   H1231     1.0  0.49885  0.11999  0.45846  1.0000
  C   C692      1.0  0.59122  0.18921  0.47614  1.0000
  C   C693      1.0  0.54267  0.10872  0.44288  1.0000
  N   N37       1.0  0.70372  0.23435  0.32786  1.0000
  H   H1232     1.0  0.70039  0.17696  0.45313  1.0000
  H   H1233     1.0  0.55509  0.09975  0.03247  1.0000
  C   C694      1.0  0.55250  0.17044  0.47739  1.0000
  H   H1234     1.0  0.49927  0.21579  0.04121  1.0000
  H   H1235     1.0  0.55878  0.12086  0.05616  1.0000
  S   S160      1.0  0.52846  0.15719  0.47850  1.0000
  S   S161      1.0  0.65198  0.18308  0.47200  1.0000
  C   C695      1.0  0.68995  0.14912  0.43143  1.0000
  H   H1236     1.0  0.58457  0.10212  0.05804  1.0000
  H   H1237     1.0  0.69854  0.18119  0.35311  1.0000
  H   H1238     1.0  0.69157  0.17155  0.30808  1.0000
  C   C696      1.0  0.56210  0.16524  0.45224  1.0000
  C   C697      1.0  0.71783  0.23969  0.46469  1.0000
  C   C698      1.0  0.50498  0.02355  0.26390  1.0000
  H   H1239     1.0  0.49597  0.01061  0.03100  1.0000
  C   C699      1.0  0.53076  0.22123  0.00262  1.0000
  H   H1240     1.0  0.69637  0.20227  0.28694  1.0000
  H   H1241     1.0  0.49410  0.21571  0.45012  1.0000
  C   C700      1.0  0.50597  0.20675  0.04778  1.0000
  C   C701      1.0  0.57654  0.12507  0.01086  1.0000
  H   H1242     1.0  0.71478  0.18882  0.31788  1.0000
  C   C702      1.0  0.57844  0.11078  0.06986  1.0000
  H   H1243     1.0  0.53337  0.09498  0.45251  1.0000
  C   C703      1.0  0.56334  0.23042  0.01470  1.0000
  C   C704      1.0  0.49151  0.24010  0.43357  1.0000
  H   H1244     1.0  0.72370  0.19571  0.07703  1.0000
  C   C705      1.0  0.49425  0.11098  0.48164  1.0000
  C   C706      1.0  0.70470  0.21705  0.34006  1.0000
  H   H1245     1.0  0.68862  0.13541  0.43926  1.0000
  H   H1246     1.0  0.54026  0.11830  0.00698  1.0000
  H   H1247     1.0  0.73408  0.22119  0.99260  1.0000
  C   C707      1.0  0.48998  0.22634  0.45776  1.0000
  C   C708      1.0  0.73187  0.20235  0.05369  1.0000
  H   H1248     1.0  0.67926  0.19368  0.32014  1.0000
  H   H1249     1.0  0.52401  0.14264  0.99669  1.0000
  H   H1250     1.0  0.58437  0.13962  0.02159  1.0000
  H   H1251     1.0  0.57046  0.10362  0.09301  1.0000
  C   C709      1.0  0.60043  0.08205  0.00890  1.0000
  C   C710      1.0  0.52662  0.21681  0.04243  1.0000
  S   S162      1.0  0.63777  0.13143  0.45774  1.0000
  N   N38       1.0  0.59375  0.15678  0.17650  1.0000
  C   C711      1.0  0.60142  0.17751  0.18137  1.0000
  C   C712      1.0  0.58363  0.14823  0.20950  1.0000
  C   C713      1.0  0.60943  0.15181  0.17109  1.0000
  C   C714      1.0  0.58062  0.14962  0.14421  1.0000
  C   C715      1.0  0.56490  0.15569  0.14243  1.0000
  C   C716      1.0  0.61041  0.18873  0.14840  1.0000
  C   C717      1.0  0.60443  0.13088  0.16948  1.0000
  C   C718      1.0  0.59568  0.15223  0.24471  1.0000
  C   C719      1.0  0.58399  0.14294  0.27619  1.0000
  C   C720      1.0  0.55264  0.14759  0.10855  1.0000
  C   C721      1.0  0.61724  0.20944  0.15629  1.0000
  C   C722      1.0  0.62146  0.12772  0.16391  1.0000
  H   H1252     1.0  0.61214  0.18269  0.20334  1.0000
  H   H1253     1.0  0.59063  0.18155  0.19016  1.0000
  H   H1254     1.0  0.57311  0.15325  0.21483  1.0000
  H   H1255     1.0  0.57575  0.13299  0.20521  1.0000
  H   H1256     1.0  0.62031  0.15852  0.19247  1.0000
  H   H1257     1.0  0.61624  0.15737  0.14581  1.0000
  H   H1258     1.0  0.58822  0.15359  0.11904  1.0000
  H   H1259     1.0  0.57382  0.13426  0.14295  1.0000
  H   H1260     1.0  0.57035  0.17092  0.14200  1.0000
  H   H1261     1.0  0.55609  0.15086  0.16570  1.0000
  H   H1262     1.0  0.62232  0.18642  0.14034  1.0000
  H   H1263     1.0  0.60047  0.18488  0.12536  1.0000
  H   H1264     1.0  0.59450  0.12360  0.14691  1.0000
  H   H1265     1.0  0.59840  0.12434  0.19464  1.0000
  H   H1266     1.0  0.60621  0.14700  0.24259  1.0000
  H   H1267     1.0  0.60282  0.16725  0.25170  1.0000
  H   H1268     1.0  0.57355  0.14814  0.28054  1.0000
  H   H1269     1.0  0.57702  0.12770  0.27141  1.0000
  H   H1270     1.0  0.59297  0.14616  0.30092  1.0000
  H   H1271     1.0  0.54182  0.15253  0.10730  1.0000
  H   H1272     1.0  0.56085  0.15206  0.08432  1.0000
  H   H1273     1.0  0.54585  0.13226  0.10856  1.0000
  H   H1274     1.0  0.62749  0.21430  0.17918  1.0000
  H   H1275     1.0  0.62389  0.21709  0.13240  1.0000
  H   H1276     1.0  0.60557  0.21261  0.16250  1.0000
  H   H1277     1.0  0.62786  0.13362  0.13849  1.0000
  H   H1278     1.0  0.63175  0.13425  0.18643  1.0000
  H   H1279     1.0  0.61758  0.11268  0.16258  1.0000
  C   C723      1.0  0.60046  0.10610  0.45405  1.0000
  H   H1280     1.0  0.52008  0.22481  0.99105  1.0000
  H   H1281     1.0  0.59846  0.11488  0.43475  1.0000
  N   N39       1.0  0.54978  0.23590  0.99601  1.0000
  H   H1282     1.0  0.55792  0.17515  0.04117  1.0000
  H   H1283     1.0  0.72458  0.23536  0.29149  1.0000
  C   C724      1.0  0.56574  0.11353  0.04220  1.0000
  H   H1284     1.0  0.67643  0.22413  0.34762  1.0000
  H   H1285     1.0  0.58958  0.12430  0.07954  1.0000
  H   H1286     1.0  0.71924  0.21926  0.34263  1.0000
  C   C725      1.0  0.61217  0.10126  0.01031  1.0000
  H   H1287     1.0  0.73809  0.21758  0.05867  1.0000
  H   H1288     1.0  0.67687  0.21902  0.30136  1.0000
  C   C726      1.0  0.59639  0.23767  0.03234  1.0000
  H   H1289     1.0  0.69924  0.21373  0.36734  1.0000
  H   H1290     1.0  0.55572  0.14216  0.00732  1.0000
  C   C727      1.0  0.61800  0.11118  0.46966  1.0000
  H   H1291     1.0  0.59442  0.07538  0.03313  1.0000
  H   H1292     1.0  0.71979  0.23730  0.03304  1.0000
  C   C728      1.0  0.71332  0.23972  0.29296  1.0000
  H   H1293     1.0  0.71301  0.18144  0.01656  1.0000
  C   C729      1.0  0.70020  0.18435  0.32435  1.0000
  C   C730      1.0  0.65841  0.24012  0.31315  1.0000
  C   C731      1.0  0.55875  0.11871  0.46989  1.0000
  H   H1294     1.0  0.49091  0.05162  0.03308  1.0000
  C   C732      1.0  0.58787  0.07723  0.48659  1.0000
  H   H1295     1.0  0.53491  0.11700  0.43842  1.0000
  H   H1296     1.0  0.65073  0.22832  0.29388  1.0000
  H   H1297     1.0  0.59497  0.24142  0.06048  1.0000
  H   H1298     1.0  0.56872  0.13134  0.45732  1.0000
  S   S163      1.0  0.61549  0.20091  0.47674  1.0000
  H   H1299     1.0  0.57231  0.08511  0.44883  1.0000
  H   H1300     1.0  0.71071  0.16332  0.47244  1.0000
  C   C733      1.0  0.48963  0.09113  0.46977  1.0000
  S   S164      1.0  0.68357  0.22732  0.99622  1.0000
  H   H1301     1.0  0.74292  0.23675  0.46048  1.0000
  H   H1302     1.0  0.58730  0.12061  0.00424  1.0000
  H   H1303     1.0  0.51151  0.03878  0.26145  1.0000
  H   H1304     1.0  0.49663  0.23971  0.40736  1.0000
  H   H1305     1.0  0.52837  0.20805  0.98828  1.0000
  C   C734      1.0  0.54984  0.12923  0.99005  1.0000
  H   H1306     1.0  0.73141  0.24184  0.38887  1.0000
  H   H1307     1.0  0.53981  0.17692  0.98807  1.0000
  Fe  Fe81      1.0  0.55845  0.03045  0.53054  1.0000
  S   S165      1.0  0.54510  0.03171  0.58178  1.0000
  H   H1308     1.0  0.75424  0.21848  0.91395  1.0000
  H   H1309     1.0  0.53978  0.11200  0.51320  1.0000
  H   H1310     1.0  0.55505  0.18938  0.52118  1.0000
  Fe  Fe82      1.0  0.56463  0.02150  0.93898  1.0000
  S   S166      1.0  0.55064  0.02174  0.88593  1.0000
  H   H1311     1.0  0.51294  0.13550  0.95296  1.0000
  C   C735      1.0  0.57212  0.02366  0.73410  1.0000
  H   H1312     1.0  0.55049  0.16031  0.61320  1.0000
  H   H1313     1.0  0.49106  0.00712  0.82498  1.0000
  H   H1314     1.0  0.53409  0.22489  0.81444  1.0000
  S   S167      1.0  0.51252  0.18593  0.55225  1.0000
  H   H1315     1.0  0.53095  0.00737  0.77107  1.0000
  Fe  Fe83      1.0  0.50874  0.16235  0.51413  1.0000
  H   H1316     1.0  0.72446  0.22574  0.53279  1.0000
  C   C736      1.0  0.53775  0.13181  0.95981  1.0000
  H   H1317     1.0  0.60175  0.14020  0.57003  1.0000
  H   H1318     1.0  0.61786  0.15410  0.90953  1.0000
  H   H1319     1.0  0.65909  0.17669  0.89976  1.0000
  H   H1320     1.0  0.57953  0.09579  0.59686  1.0000
  S   S168      1.0  0.50638  0.19189  0.88459  1.0000
  H   H1321     1.0  0.54092  0.16475  0.57224  1.0000
  H   H1322     1.0  0.58067  0.03826  0.73137  1.0000
  Fe  Fe84      1.0  0.51900  0.17572  0.91318  1.0000
  S   S169      1.0  0.55003  0.18673  0.91479  1.0000
  C   C737      1.0  0.50893  0.21658  0.78136  1.0000
  H   H1323     1.0  0.51393  0.03217  0.80044  1.0000
  H   H1324     1.0  0.75514  0.23345  0.95122  1.0000
  H   H1325     1.0  0.73494  0.15726  0.92463  1.0000
  H   H1326     1.0  0.53441  0.21501  0.77084  1.0000
  C   C738      1.0  0.52047  0.13207  0.97450  1.0000
  H   H1327     1.0  0.69169  0.19897  0.89921  1.0000
  H   H1328     1.0  0.63099  0.16670  0.55567  1.0000
  H   H1329     1.0  0.59987  0.16171  0.56831  1.0000
  C   C739      1.0  0.54400  0.23835  0.89210  1.0000
  H   H1330     1.0  0.67717  0.14300  0.49518  1.0000
  C   C740      1.0  0.55789  0.07683  0.93431  1.0000
  H   H1331     1.0  0.55334  0.10722  0.92993  1.0000
  H   H1332     1.0  0.50105  0.01541  0.70249  1.0000
  H   H1333     1.0  0.54548  0.14517  0.94705  1.0000
  N   N40       1.0  0.56637  0.13166  0.53641  1.0000
  H   H1334     1.0  0.54357  0.06811  0.94169  1.0000
  H   H1335     1.0  0.51198  0.05668  0.84502  1.0000
  H   H1336     1.0  0.71661  0.19965  0.57273  1.0000
  H   H1337     1.0  0.72153  0.21280  0.89901  1.0000
  C   C741      1.0  0.51087  0.00302  0.66229  1.0000
  C   C742      1.0  0.60527  0.15499  0.91826  1.0000
  C   C743      1.0  0.56407  0.01224  0.70324  1.0000
  H   H1338     1.0  0.56501  0.15781  0.54198  1.0000
  C   C744      1.0  0.49539  0.21304  0.81177  1.0000
  H   H1339     1.0  0.56123  0.09373  0.52270  1.0000
  C   C745      1.0  0.72711  0.21688  0.92701  1.0000
  H   H1340     1.0  0.60733  0.07362  0.52186  1.0000
  H   H1341     1.0  0.60298  0.13781  0.96207  1.0000
  H   H1342     1.0  0.62219  0.02138  0.63863  1.0000
  H   H1343     1.0  0.68140  0.16564  0.58331  1.0000
  C   C746      1.0  0.54242  0.13836  0.57130  1.0000
  C   C747      1.0  0.68775  0.18759  0.91801  1.0000
  C   C748      1.0  0.60131  0.15075  0.55209  1.0000
  C   C749      1.0  0.53957  0.23957  0.93124  1.0000
  C   C750      1.0  0.53996  0.15394  0.59102  1.0000
  H   H1344     1.0  0.68817  0.19170  0.50957  1.0000
  S   S170      1.0  0.53809  0.00267  0.96350  1.0000
  H   H1345     1.0  0.55042  0.10848  0.56834  1.0000
  H   H1346     1.0  0.58500  0.10847  0.53582  1.0000
  C   C751      1.0  0.56224  0.14544  0.55791  1.0000
  S   S171      1.0  0.50673  0.16692  0.64859  1.0000
  H   H1347     1.0  0.57285  0.12234  0.58627  1.0000
  S   S172      1.0  0.57094  0.01276  0.55418  1.0000
  C   C752      1.0  0.56257  0.18576  0.95340  1.0000
  H   H1348     1.0  0.59292  0.00272  0.68030  1.0000
  H   H1349     1.0  0.52624  0.14836  0.60280  1.0000
  H   H1350     1.0  0.57145  0.15058  0.58233  1.0000
  H   H1351     1.0  0.53195  0.13304  0.54887  1.0000
  Fe  Fe85      1.0  0.49563  0.16399  0.59015  1.0000
  H   H1352     1.0  0.64280  0.14820  0.58992  1.0000
  H   H1353     1.0  0.62260  0.14953  0.51916  1.0000
  C   C753      1.0  0.59764  0.99802  0.61379  1.0000
  H   H1354     1.0  0.53954  0.12721  0.59033  1.0000
  H   H1355     1.0  0.51033  0.16856  0.78054  1.0000
  C   C754      1.0  0.69971  0.19397  0.95335  1.0000
  H   H1356     1.0  0.55250  0.22234  0.94747  1.0000
  Fe  Fe86      1.0  0.55589  0.01265  0.60449  1.0000
  C   C755      1.0  0.51553  0.05064  0.86865  1.0000
  H   H1357     1.0  0.61994  0.17066  0.51672  1.0000
  C   C756      1.0  0.55294  0.23586  0.95642  1.0000
  H   H1358     1.0  0.58116  0.15305  0.96718  1.0000
  H   H1359     1.0  0.66544  0.19312  0.93720  1.0000
  H   H1360     1.0  0.73926  0.19029  0.93154  1.0000
  H   H1361     1.0  0.52279  0.17152  0.71981  1.0000
  Fe  Fe87      1.0  0.52478  0.00170  0.91003  1.0000
  S   S173      1.0  0.49290  0.00388  0.56793  1.0000
  H   H1362     1.0  0.69735  0.20531  0.96589  1.0000
  C   C757      1.0  0.61653  0.09941  0.94711  1.0000
  S   S174      1.0  0.49721  0.00189  0.90128  1.0000
  Fe  Fe88      1.0  0.52118  0.00572  0.56140  1.0000
  C   C758      1.0  0.61753  0.01356  0.61257  1.0000
  H   H1363     1.0  0.71907  0.17137  0.52912  1.0000
  H   H1364     1.0  0.63316  0.03828  0.58374  1.0000
  C   C759      1.0  0.49663  0.00775  0.97369  1.0000
  H   H1365     1.0  0.51137  0.01546  0.97340  1.0000
  S   S175      1.0  0.49970  0.14827  0.88689  1.0000
  H   H1366     1.0  0.54486  0.05674  0.79565  1.0000
  H   H1367     1.0  0.69387  0.19804  0.57698  1.0000
  H   H1368     1.0  0.71049  0.17026  0.57212  1.0000
  H   H1369     1.0  0.50071  0.10707  0.90434  1.0000
  H   H1370     1.0  0.54336  0.22458  0.88514  1.0000
  H   H1371     1.0  0.49948  0.23770  0.91127  1.0000
  H   H1372     1.0  0.51137  0.04839  0.92492  1.0000
  C   C760      1.0  0.58552  0.14193  0.52308  1.0000
  H   H1373     1.0  0.50354  0.06798  0.53486  1.0000
  S   S176      1.0  0.63608  0.13419  0.97988  1.0000
  C   C761      1.0  0.60460  0.08024  0.94559  1.0000
  C   C762      1.0  0.51909  0.00872  0.78268  1.0000
  H   H1374     1.0  0.57456  0.07823  0.56213  1.0000
  H   H1375     1.0  0.58139  0.10150  0.95296  1.0000
  H   H1376     1.0  0.72397  0.16843  0.97726  1.0000
  H   H1377     1.0  0.73067  0.14798  0.53812  1.0000
  H   H1378     1.0  0.51230  0.06918  0.90661  1.0000
  C   C763      1.0  0.67567  0.16284  0.55521  1.0000
  H   H1379     1.0  0.52153  0.20025  0.80534  1.0000
  C   C764      1.0  0.50137  0.16637  0.75715  1.0000
  H   H1380     1.0  0.52056  0.03362  0.75546  1.0000
  C   C765      1.0  0.58136  0.19048  0.95128  1.0000
  H   H1381     1.0  0.60991  0.03432  0.59146  1.0000
  H   H1382     1.0  0.60608  0.19288  0.97923  1.0000
  C   C766      1.0  0.70644  0.16421  0.54439  1.0000
  C   C767      1.0  0.55623  0.10569  0.95862  1.0000
  H   H1383     1.0  0.53386  0.24045  0.87457  1.0000
  C   C768      1.0  0.72418  0.18554  0.93262  1.0000
  H   H1384     1.0  0.54611  0.03869  0.82121  1.0000
  H   H1385     1.0  0.55592  0.08069  0.58271  1.0000
  C   C769      1.0  0.50839  0.16797  0.72257  1.0000
  H   H1386     1.0  0.62287  0.10598  0.92302  1.0000
  C   C770      1.0  0.55959  0.99733  0.77229  1.0000
  H   H1387     1.0  0.71905  0.18299  0.90415  1.0000
  H   H1388     1.0  0.65079  0.14154  0.52860  1.0000
  H   H1389     1.0  0.69367  0.18240  0.97161  1.0000
  C   C771      1.0  0.57078  0.10195  0.54516  1.0000
  C   C772      1.0  0.56487  0.11642  0.56059  1.0000
  C   C773      1.0  0.70523  0.20122  0.55848  1.0000
  C   C774      1.0  0.61877  0.02747  0.58457  1.0000
  C   C775      1.0  0.49696  0.16485  0.69153  1.0000
  H   H1390     1.0  0.52460  0.01879  0.70962  1.0000
  H   H1391     1.0  0.55803  0.08113  0.90634  1.0000
  H   H1392     1.0  0.55249  0.04106  0.77503  1.0000
  H   H1393     1.0  0.72551  0.14916  0.58468  1.0000
  H   H1394     1.0  0.51978  0.00568  0.81146  1.0000
  H   H1395     1.0  0.69236  0.13700  0.56711  1.0000
  H   H1396     1.0  0.60954  0.16794  0.93489  1.0000
  H   H1397     1.0  0.53071  0.05709  0.87279  1.0000
  H   H1398     1.0  0.65671  0.13786  0.60889  1.0000
  C   C776      1.0  0.61984  0.15991  0.53478  1.0000
  C   C777      1.0  0.57012  0.08839  0.57356  1.0000
  H   H1399     1.0  0.71260  0.14982  0.90198  1.0000
  C   C778      1.0  0.71671  0.16678  0.95089  1.0000
  C   C779      1.0  0.54284  0.04219  0.79431  1.0000
  N   N41       1.0  0.69102  0.16801  0.52924  1.0000
  H   H1400     1.0  0.58916  0.20598  0.52004  1.0000
  C   C780      1.0  0.66748  0.18143  0.92522  1.0000
  C   C781      1.0  0.59393  0.13815  0.93973  1.0000
  H   H1401     1.0  0.59723  0.15556  0.89418  1.0000
  S   S177      1.0  0.56844  0.05592  0.49508  1.0000
  Fe  Fe89      1.0  0.48848  0.18669  0.93167  1.0000
  C   C782      1.0  0.71241  0.22155  0.54985  1.0000
  H   H1402     1.0  0.52512  0.22935  0.93426  1.0000
  C   C783      1.0  0.57661  0.13925  0.95347  1.0000
  H   H1403     1.0  0.49483  0.05297  0.96807  1.0000
  H   H1404     1.0  0.54751  0.13450  0.49731  1.0000
  H   H1405     1.0  0.68897  0.17571  0.90482  1.0000
  H   H1406     1.0  0.59000  0.12582  0.92153  1.0000
  C   C784      1.0  0.51037  0.00867  0.70141  1.0000
  S   S178      1.0  0.49409  0.14063  0.55348  1.0000
  H   H1407     1.0  0.56848  0.13929  0.92904  1.0000
  C   C785      1.0  0.64839  0.13804  0.58494  1.0000
  C   C786      1.0  0.72002  0.15247  0.92850  1.0000
  H   H1408     1.0  0.70152  0.22408  0.53575  1.0000
  H   H1409     1.0  0.57626  0.02527  0.79180  1.0000
  C   C787      1.0  0.52302  0.02943  0.78216  1.0000
  H   H1410     1.0  0.63371  0.10294  0.50649  1.0000
  S   S179      1.0  0.58152  0.04704  0.97686  1.0000
  S   S180      1.0  0.56979  0.02189  0.66047  1.0000
  H   H1411     1.0  0.50323  0.22022  0.83684  1.0000
  C   C788      1.0  0.50680  0.05404  0.90194  1.0000
  H   H1412     1.0  0.53338  0.12054  0.93885  1.0000
  H   H1413     1.0  0.50550  0.11611  0.50265  1.0000
  H   H1414     1.0  0.71680  0.23027  0.57498  1.0000
  N   N42       1.0  0.56496  0.12444  0.97805  1.0000
  H   H1415     1.0  0.58796  0.19481  0.92619  1.0000
  C   C789      1.0  0.49999  0.06244  0.50660  1.0000
  H   H1416     1.0  0.66251  0.16981  0.94367  1.0000
  Fe  Fe90      1.0  0.55426  0.99630  0.87056  1.0000
  H   H1417     1.0  0.56550  0.06830  0.93576  1.0000
  C   C790      1.0  0.56964  0.01634  0.76846  1.0000
  H   H1418     1.0  0.60187  0.07230  0.92054  1.0000
  C   C791      1.0  0.60528  0.08259  0.50307  1.0000
  N   N43       1.0  0.72012  0.20029  0.95026  1.0000
  S   S181      1.0  0.50243  0.17206  0.96154  1.0000
  H   H1419     1.0  0.58928  0.13289  0.50563  1.0000
  H   H1420     1.0  0.71678  0.12718  0.56037  1.0000
  H   H1421     1.0  0.58606  0.15319  0.50580  1.0000
  C   C792      1.0  0.66004  0.14281  0.55196  1.0000
  H   H1422     1.0  0.72217  0.22707  0.93666  1.0000
  C   C793      1.0  0.59652  0.07133  0.97660  1.0000
  S   S182      1.0  0.53341  0.00527  0.50861  1.0000
  C   C794      1.0  0.52575  0.21403  0.79391  1.0000
  C   C795      1.0  0.59165  0.18938  0.98128  1.0000
  C   C796      1.0  0.55236  0.12411  0.50523  1.0000
  H   H1423     1.0  0.62719  0.00775  0.60541  1.0000
  C   C797      1.0  0.69864  0.18854  0.52388  1.0000
  C   C798      1.0  0.68360  0.15822  0.49325  1.0000
  C   C799      1.0  0.74833  0.22756  0.92466  1.0000
  H   H1424     1.0  0.66512  0.13225  0.54808  1.0000
  H   H1425     1.0  0.49529  0.03393  0.51741  1.0000
  H   H1426     1.0  0.66842  0.17175  0.55187  1.0000
  H   H1427     1.0  0.63667  0.12412  0.58056  1.0000
  H   H1428     1.0  0.70172  0.16103  0.95453  1.0000
  H   H1429     1.0  0.61442  0.02054  0.55756  1.0000
  H   H1430     1.0  0.48972  0.01423  0.75510  1.0000
  H   H1431     1.0  0.51077  0.03561  0.86334  1.0000
  C   C800      1.0  0.52418  0.05107  0.51723  1.0000
  C   C801      1.0  0.56231  0.18526  0.50170  1.0000
  H   H1432     1.0  0.49493  0.07863  0.93844  1.0000
  C   C802      1.0  0.50469  0.04589  0.50260  1.0000
  C   C803      1.0  0.48851  0.23268  0.96364  1.0000
  H   H1433     1.0  0.51396  0.23076  0.77170  1.0000
  H   H1434     1.0  0.50210  0.20640  0.75875  1.0000
  C   C804      1.0  0.62043  0.11009  0.97943  1.0000
  H   H1435     1.0  0.51567  0.01540  0.64578  1.0000
  H   H1436     1.0  0.69760  0.13600  0.52056  1.0000
  C   C805      1.0  0.70257  0.14370  0.54666  1.0000
  C   C806      1.0  0.56692  0.09375  0.96002  1.0000
  C   C807      1.0  0.71999  0.14199  0.55819  1.0000
  H   H1437     1.0  0.52550  0.05466  0.54636  1.0000
  H   H1438     1.0  0.71058  0.19325  0.50628  1.0000
  H   H1439     1.0  0.54254  0.09690  0.96925  1.0000
  H   H1440     1.0  0.52734  0.03912  0.51307  1.0000
  H   H1441     1.0  0.71482  0.13926  0.94250  1.0000
  H   H1442     1.0  0.74806  0.23859  0.87205  1.0000
  H   H1443     1.0  0.54535  0.24177  0.50407  1.0000
  C   C808      1.0  0.58162  0.19459  0.50106  1.0000
  H   H1444     1.0  0.52058  0.99676  0.65955  1.0000
  N   N44       1.0  0.50133  0.99488  0.76420  1.0000
  C   C809      1.0  0.62024  0.09931  0.49436  1.0000
  H   H1445     1.0  0.61565  0.99794  0.74764  1.0000
  C   C810      1.0  0.55320  0.99338  0.70723  1.0000
  H   H1446     1.0  0.53436  0.06287  0.50298  1.0000
  H   H1447     1.0  0.49184  0.07704  0.87029  1.0000
  H   H1448     1.0  0.49429  0.24221  0.77499  1.0000
  H   H1449     1.0  0.58845  0.00471  0.61917  1.0000
  S   S183      1.0  0.56990  0.99685  0.92257  1.0000
  C   C811      1.0  0.73004  0.20629  0.98669  1.0000
  H   H1450     1.0  0.49028  0.19815  0.81675  1.0000
  H   H1451     1.0  0.51118  0.11833  0.98431  1.0000
  H   H1452     1.0  0.51005  0.07328  0.49048  1.0000
  C   C812      1.0  0.55421  0.18036  0.98602  1.0000
  H   H1453     1.0  0.58660  0.23879  0.97931  1.0000
  H   H1454     1.0  0.61436  0.00165  0.68132  1.0000
  H   H1455     1.0  0.59582  0.00270  0.74703  1.0000
  H   H1456     1.0  0.56697  0.08867  0.98729  1.0000
  H   H1457     1.0  0.74323  0.20511  0.98693  1.0000
  H   H1458     1.0  0.48764  0.10497  0.86328  1.0000
  C   C813      1.0  0.48703  0.09947  0.89037  1.0000
  Fe  Fe91      1.0  0.95913  0.41444  0.44121  1.0000
  S   S184      1.0  0.95287  0.42428  0.38953  1.0000
  H   H1459     1.0  0.96111  0.44418  0.27656  1.0000
  Fe  Fe92      1.0  0.97298  0.45250  0.40994  1.0000
  H   H1460     1.0  0.68591  0.25824  0.33067  1.0000
  Fe  Fe93      1.0  0.97782  0.42233  0.36892  1.0000
  C   C814      1.0  0.65329  0.43714  0.47049  1.0000
  C   C815      1.0  0.51417  0.40234  0.40020  1.0000
  Fe  Fe94      1.0  0.95519  0.41665  0.04111  1.0000
  H   H1461     1.0  0.73378  0.27251  0.41293  1.0000
  S   S185      1.0  0.96031  0.43763  0.08661  1.0000
  H   H1462     1.0  0.74050  0.25236  0.34776  1.0000
  S   S186      1.0  0.51712  0.32091  0.38221  1.0000
  H   H1463     1.0  0.90736  0.38671  0.31404  1.0000
  S   S187      1.0  0.50661  0.35456  0.40507  1.0000
  H   H1464     1.0  0.82980  0.36183  0.02612  1.0000
  Fe  Fe95      1.0  0.52263  0.34075  0.42934  1.0000
  C   C816      1.0  0.83827  0.38627  0.99489  1.0000
  H   H1465     1.0  0.81581  0.46500  0.14068  1.0000
  C   C817      1.0  0.73702  0.24587  0.46873  1.0000
  H   H1466     1.0  0.65723  0.45067  0.48453  1.0000
  S   S188      1.0  0.77249  0.46080  0.38163  1.0000
  H   H1467     1.0  0.91619  0.47883  0.08423  1.0000
  Fe  Fe96      1.0  0.79597  0.45726  0.40785  1.0000
  S   S189      1.0  0.79617  0.42921  0.40375  1.0000
  C   C818      1.0  0.76229  0.44994  0.17230  1.0000
  C   C819      1.0  0.73210  0.25269  0.37042  1.0000
  H   H1468     1.0  0.81663  0.44329  0.13525  1.0000
  H   H1469     1.0  0.78550  0.37224  0.99876  1.0000
  H   H1470     1.0  0.91429  0.40145  0.18760  1.0000
  Fe  Fe97      1.0  0.52784  0.35495  0.03644  1.0000
  S   S190      1.0  0.55668  0.37868  0.04061  1.0000
  C   C820      1.0  0.97185  0.48950  0.44650  1.0000
  H   H1471     1.0  0.68121  0.46167  0.42823  1.0000
  S   S191      1.0  0.50754  0.35743  0.07315  1.0000
  S   S192      1.0  0.52155  0.32612  0.05263  1.0000
  H   H1472     1.0  0.62966  0.43596  0.44093  1.0000
  H   H1473     1.0  0.95480  0.46422  0.32010  1.0000
  Fe  Fe98      1.0  0.80339  0.46134  0.05107  1.0000
  C   C821      1.0  0.50979  0.46098  0.48621  1.0000
  S   S193      1.0  0.79573  0.43106  0.05865  1.0000
  C   C822      1.0  0.97001  0.40512  0.24073  1.0000
  H   H1474     1.0  0.92561  0.39590  0.15161  1.0000
  S   S194      1.0  0.83178  0.48243  0.06721  1.0000
  S   S195      1.0  0.78989  0.47467  0.08514  1.0000
  S   S196      1.0  0.97190  0.40664  0.31451  1.0000
  H   H1475     1.0  0.52431  0.28640  0.36266  1.0000
  S   S197      1.0  0.93737  0.39497  0.47807  1.0000
  H   H1476     1.0  0.68092  0.47152  0.36042  1.0000
  C   C823      1.0  0.57638  0.44132  0.09879  1.0000
  C   C824      1.0  0.72190  0.24615  0.01071  1.0000
  H   H1477     1.0  0.67243  0.43885  0.40893  1.0000
  S   S198      1.0  0.96543  0.47606  0.40632  1.0000
  Fe  Fe99      1.0  0.49236  0.30149  0.41146  1.0000
  H   H1478     1.0  0.91199  0.47155  0.03816  1.0000
  C   C825      1.0  0.93995  0.42416  0.17289  1.0000
  H   H1479     1.0  0.61094  0.24568  0.02536  1.0000
  C   C826      1.0  0.86436  0.41102  0.45553  1.0000
  S   S199      1.0  0.50044  0.34495  0.30388  1.0000
  S   S200      1.0  0.97953  0.41138  0.05947  1.0000
  H   H1480     1.0  0.70854  0.41514  0.99263  1.0000
  H   H1481     1.0  0.96960  0.45572  0.16314  1.0000
  H   H1482     1.0  0.66028  0.47247  0.44878  1.0000
  H   H1483     1.0  0.56828  0.41706  0.42083  1.0000
  H   H1484     1.0  0.51573  0.41383  0.38277  1.0000
  H   H1485     1.0  0.72871  0.40121  0.40965  1.0000
  C   C827      1.0  0.53123  0.27763  0.36980  1.0000
  H   H1486     1.0  0.93037  0.38018  0.39731  1.0000
  H   H1487     1.0  0.50058  0.38153  0.45812  1.0000
  H   H1488     1.0  0.90142  0.41884  0.44298  1.0000
  C   C828      1.0  0.79947  0.41891  0.44268  1.0000
  C   C829      1.0  0.78297  0.45564  0.17977  1.0000
  S   S201      1.0  0.49913  0.32087  0.45961  1.0000
  H   H1489     1.0  0.80227  0.45042  0.25932  1.0000
  C   C830      1.0  0.83357  0.37676  0.03048  1.0000
  H   H1490     1.0  0.48988  0.29722  0.20803  1.0000
  C   C831      1.0  0.55305  0.25494  0.01009  1.0000
  H   H1491     1.0  0.73815  0.25776  0.24095  1.0000
  H   H1492     1.0  0.73468  0.26826  0.30256  1.0000
  H   H1493     1.0  0.53779  0.27537  0.34569  1.0000
  H   H1494     1.0  0.93458  0.39799  0.19696  1.0000
  H   H1495     1.0  0.54963  0.28437  0.04473  1.0000
  C   C832      1.0  0.91599  0.30345  0.35535  1.0000
  C   C833      1.0  0.57024  0.40872  0.44118  1.0000
  C   C834      1.0  0.55943  0.38949  0.43935  1.0000
  C   C835      1.0  0.77952  0.43219  0.28830  1.0000
  H   H1496     1.0  0.82052  0.37679  0.42939  1.0000
  H   H1497     1.0  0.54928  0.38309  0.41763  1.0000
  H   H1498     1.0  0.90936  0.35965  0.39146  1.0000
  H   H1499     1.0  0.50749  0.36320  0.23720  1.0000
  H   H1500     1.0  0.74458  0.28283  0.37233  1.0000
  H   H1501     1.0  0.81365  0.43869  0.20131  1.0000
  C   C836      1.0  0.74127  0.41457  0.41028  1.0000
  Fe  Fe100     1.0  0.77293  0.47740  0.43149  1.0000
  H   H1502     1.0  0.75189  0.41411  0.16192  1.0000
  H   H1503     1.0  0.75549  0.27300  0.40202  1.0000
  C   C837      1.0  0.88314  0.37372  0.44393  1.0000
  C   C838      1.0  0.90248  0.38381  0.44520  1.0000
  H   H1504     1.0  0.87537  0.37283  0.41937  1.0000
  H   H1505     1.0  0.90940  0.39083  0.42198  1.0000
  H   H1506     1.0  0.59602  0.45776  0.99847  1.0000
  Fe  Fe101     1.0  0.49888  0.33296  0.35960  1.0000
  C   C839      1.0  0.56537  0.31739  0.45506  1.0000
  H   H1507     1.0  0.95054  0.36285  0.33792  1.0000
  H   H1508     1.0  0.50026  0.39082  0.39468  1.0000
  H   H1509     1.0  0.79002  0.46364  0.15666  1.0000
  C   C840      1.0  0.87211  0.36627  0.99180  1.0000
  C   C841      1.0  0.79732  0.39132  0.47183  1.0000
  H   H1510     1.0  0.51114  0.29188  0.47727  1.0000
  H   H1511     1.0  0.57646  0.41427  0.09430  1.0000
  H   H1512     1.0  0.93286  0.47909  0.21891  1.0000
  C   C842      1.0  0.58720  0.46441  0.00728  1.0000
  H   H1513     1.0  0.84501  0.45484  0.17459  1.0000
  H   H1514     1.0  0.74367  0.46239  0.16344  1.0000
  C   C843      1.0  0.49752  0.32396  0.18620  1.0000
  C   C844      1.0  0.98571  0.48936  0.46950  1.0000
  C   C845      1.0  0.79084  0.39840  0.02539  1.0000
  H   H1515     1.0  0.56017  0.46498  0.05506  1.0000
  H   H1516     1.0  0.71271  0.26232  0.35000  1.0000
  H   H1517     1.0  0.52541  0.27783  0.43988  1.0000
  C   C846      1.0  0.49995  0.33648  0.25903  1.0000
  Fe  Fe102     1.0  0.78953  0.49048  0.03639  1.0000
  H   H1518     1.0  0.84229  0.37978  0.41309  1.0000
  C   C847      1.0  0.61332  0.43473  0.33364  1.0000
  H   H1519     1.0  0.76339  0.26825  0.48593  1.0000
  H   H1520     1.0  0.59022  0.44784  0.11239  1.0000
  H   H1521     1.0  0.78303  0.43345  0.12927  1.0000
  H   H1522     1.0  0.89291  0.44417  0.45533  1.0000
  H   H1523     1.0  0.57439  0.31464  0.43632  1.0000
  C   C848      1.0  0.74469  0.42260  0.99912  1.0000
  H   H1524     1.0  0.93263  0.42898  0.15339  1.0000
  H   H1525     1.0  0.95391  0.43088  0.22413  1.0000
  H   H1526     1.0  0.79397  0.37679  0.47027  1.0000
  H   H1527     1.0  0.70376  0.24508  0.38154  1.0000
  C   C849      1.0  0.58474  0.40748  0.00999  1.0000
  H   H1528     1.0  0.60542  0.47830  0.09279  1.0000
  H   H1529     1.0  0.98150  0.36511  0.33042  1.0000
  H   H1530     1.0  0.55181  0.49100  0.04879  1.0000
  N   N45       1.0  0.65292  0.45060  0.40805  1.0000
  H   H1531     1.0  0.71287  0.26702  0.28908  1.0000
  C   C850      1.0  0.72902  0.47682  0.47032  1.0000
  Fe  Fe103     1.0  0.98520  0.43365  0.10270  1.0000
  H   H1532     1.0  0.52469  0.39758  0.39327  1.0000
  C   C851      1.0  0.81960  0.45509  0.15440  1.0000
  C   C852      1.0  0.79561  0.40014  0.44096  1.0000
  C   C853      1.0  0.92332  0.36699  0.38093  1.0000
  H   H1533     1.0  0.95278  0.42533  0.16098  1.0000
  H   H1534     1.0  0.67619  0.44812  0.34905  1.0000
  H   H1535     1.0  0.54421  0.47891  0.47059  1.0000
  H   H1536     1.0  0.78792  0.46593  0.20254  1.0000
  C   C854      1.0  0.57506  0.47383  0.06125  1.0000
  C   C855      1.0  0.95522  0.46410  0.24525  1.0000
  H   H1537     1.0  0.71612  0.25683  0.22722  1.0000
  C   C856      1.0  0.54577  0.28697  0.40002  1.0000
  H   H1538     1.0  0.91696  0.39665  0.35773  1.0000
  H   H1539     1.0  0.92151  0.33853  0.33683  1.0000
  H   H1540     1.0  0.68308  0.24975  0.28448  1.0000
  H   H1541     1.0  0.51113  0.48029  0.42237  1.0000
  C   C857      1.0  0.49391  0.31170  0.21428  1.0000
  C   C858      1.0  0.74205  0.27141  0.39062  1.0000
  H   H1542     1.0  0.53080  0.30018  0.42590  1.0000
  H   H1543     1.0  0.52074  0.26403  0.37787  1.0000
  C   C859      1.0  0.92439  0.34280  0.48504  1.0000
  H   H1544     1.0  0.95888  0.39150  0.24316  1.0000
  H   H1545     1.0  0.91043  0.35086  0.44501  1.0000
  C   C860      1.0  0.70671  0.24445  0.98936  1.0000
  H   H1546     1.0  0.53802  0.40214  0.03333  1.0000
  S   S202      1.0  0.59728  0.44130  0.46882  1.0000
  N   N46       1.0  0.55001  0.29947  0.46609  1.0000
  H   H1547     1.0  0.50639  0.41433  0.44438  1.0000
  H   H1548     1.0  0.55625  0.29995  0.38958  1.0000
  H   H1549     1.0  0.55218  0.27765  0.40602  1.0000
  H   H1550     1.0  0.91220  0.30399  0.32678  1.0000
  C   C861      1.0  0.75275  0.41717  0.44488  1.0000
  H   H1551     1.0  0.79145  0.41952  0.15236  1.0000
  H   H1552     1.0  0.86485  0.47382  0.03559  1.0000
  C   C862      1.0  0.72225  0.26058  0.28486  1.0000
  H   H1553     1.0  0.85096  0.41243  0.02472  1.0000
  H   H1554     1.0  0.52371  0.49132  0.36393  1.0000
  C   C863      1.0  0.71236  0.24898  0.35756  1.0000
  H   H1555     1.0  0.52452  0.38812  0.45628  1.0000
  C   C864      1.0  0.80914  0.44867  0.18954  1.0000
  H   H1556     1.0  0.84342  0.38612  0.47889  1.0000
  C   C865      1.0  0.85896  0.46632  0.00960  1.0000
  C   C866      1.0  0.97534  0.41185  0.20637  1.0000
  C   C867      1.0  0.74872  0.26378  0.48323  1.0000
  H   H1557     1.0  0.82171  0.37817  0.04193  1.0000
  H   H1558     1.0  0.91254  0.35956  0.32487  1.0000
  H   H1559     1.0  0.85872  0.35778  0.00173  1.0000
  H   H1560     1.0  0.81451  0.46099  0.20830  1.0000
  C   C868      1.0  0.79503  0.41706  0.02116  1.0000
  H   H1561     1.0  0.92184  0.29334  0.35737  1.0000
  S   S203      1.0  0.97209  0.43814  0.00268  1.0000
  C   C869      1.0  0.76269  0.40978  0.15551  1.0000
  H   H1562     1.0  0.59878  0.43247  0.33369  1.0000
  H   H1563     1.0  0.93720  0.46201  0.04051  1.0000
  H   H1564     1.0  0.73499  0.27856  0.24144  1.0000
  H   H1565     1.0  0.66600  0.43541  0.46687  1.0000
  C   C870      1.0  0.72822  0.26354  0.24624  1.0000
  H   H1566     1.0  0.55957  0.32554  0.44002  1.0000
  H   H1567     1.0  0.51402  0.39583  0.03828  1.0000
  H   H1568     1.0  0.96833  0.40346  0.18266  1.0000
  H   H1569     1.0  0.75787  0.44259  0.14569  1.0000
  H   H1570     1.0  0.53061  0.42068  0.44304  1.0000
  H   H1571     1.0  0.70132  0.48996  0.99546  1.0000
  S   S204      1.0  0.49383  0.31488  0.14101  1.0000
  C   C871      1.0  0.60563  0.47333  0.06483  1.0000
  H   H1572     1.0  0.88121  0.42934  0.02137  1.0000
  H   H1573     1.0  0.78411  0.44151  0.31272  1.0000
  H   H1574     1.0  0.93366  0.32096  0.39801  1.0000
  H   H1575     1.0  0.55870  0.25748  0.03826  1.0000
  H   H1576     1.0  0.50569  0.35230  0.17371  1.0000
  H   H1577     1.0  0.56388  0.26575  0.99483  1.0000
  H   H1578     1.0  0.59131  0.41046  0.03648  1.0000
  N   N47       1.0  0.58640  0.46449  0.04759  1.0000
  H   H1579     1.0  0.78863  0.39288  0.05180  1.0000
  C   C872      1.0  0.66259  0.48545  0.39905  1.0000
  H   H1580     1.0  0.53481  0.48399  0.41989  1.0000
  H   H1581     1.0  0.52988  0.41964  0.03158  1.0000
  H   H1582     1.0  0.75384  0.44102  0.19323  1.0000
  H   H1583     1.0  0.78193  0.45411  0.25481  1.0000
  S   S205      1.0  0.79551  0.47230  0.45870  1.0000
  C   C873      1.0  0.78095  0.43090  0.22045  1.0000
  H   H1584     1.0  0.76572  0.42429  0.21943  1.0000
  C   C874      1.0  0.74671  0.44099  0.01724  1.0000
  H   H1585     1.0  0.61395  0.43021  0.38955  1.0000
  S   S206      1.0  0.98012  0.48676  0.04820  1.0000
  C   C875      1.0  0.92038  0.37209  0.34225  1.0000
  H   H1586     1.0  0.84438  0.47696  0.18001  1.0000
  H   H1587     1.0  0.97328  0.36954  0.40902  1.0000
  C   C876      1.0  0.70268  0.46438  0.37491  1.0000
  C   C877      1.0  0.65309  0.46841  0.42208  1.0000
  C   C878      1.0  0.95215  0.36584  0.36740  1.0000
  H   H1588     1.0  0.76688  0.47660  0.15132  1.0000
  H   H1589     1.0  0.90343  0.29854  0.37116  1.0000
  S   S207      1.0  0.84943  0.35114  0.47010  1.0000
  C   C879      1.0  0.74721  0.44003  0.05799  1.0000
  H   H1590     1.0  0.73392  0.41126  0.01351  1.0000
  C   C880      1.0  0.92294  0.47784  0.05937  1.0000
  S   S208      1.0  0.74547  0.46811  0.46057  1.0000
  C   C881      1.0  0.57832  0.33037  0.48574  1.0000
  H   H1591     1.0  0.93367  0.38040  0.33002  1.0000
  H   H1592     1.0  0.86473  0.41985  0.43289  1.0000
  H   H1593     1.0  0.95684  0.38104  0.37069  1.0000
  H   H1594     1.0  0.88587  0.37239  0.04424  1.0000
  H   H1595     1.0  0.62060  0.44538  0.31408  1.0000
  S   S209      1.0  0.97771  0.44298  0.46302  1.0000
  H   H1596     1.0  0.76123  0.47400  0.19799  1.0000
  H   H1597     1.0  0.93487  0.43580  0.45434  1.0000
  C   C882      1.0  0.52644  0.40503  0.02422  1.0000
  Fe  Fe104     1.0  0.79431  0.48701  0.36101  1.0000
  H   H1598     1.0  0.51393  0.46037  0.45854  1.0000
  C   C883      1.0  0.88761  0.37457  0.01592  1.0000
  H   H1599     1.0  0.75970  0.45263  0.01024  1.0000
  H   H1600     1.0  0.53413  0.26017  0.46859  1.0000
  H   H1601     1.0  0.76426  0.42537  0.28663  1.0000
  C   C884      1.0  0.53716  0.29098  0.43373  1.0000
  H   H1602     1.0  0.87838  0.40679  0.00830  1.0000
  H   H1603     1.0  0.74901  0.45343  0.07037  1.0000
  H   H1604     1.0  0.73413  0.42905  0.06698  1.0000
  H   H1605     1.0  0.75883  0.43720  0.06734  1.0000
  C   C885      1.0  0.75725  0.39903  0.11941  1.0000
  C   C886      1.0  0.91282  0.38450  0.47627  1.0000
  H   H1606     1.0  0.74360  0.38699  0.12080  1.0000
  C   C887      1.0  0.51670  0.40903  0.43946  1.0000
  Fe  Fe105     1.0  0.97844  0.45827  0.04935  1.0000
  H   H1607     1.0  0.49227  0.30824  0.27159  1.0000
  H   H1608     1.0  0.94139  0.45948  0.25654  1.0000
  C   C888      1.0  0.87374  0.36476  0.47410  1.0000
  H   H1609     1.0  0.62118  0.45397  0.37861  1.0000
  C   C889      1.0  0.54193  0.27984  0.01848  1.0000
  C   C890      1.0  0.67906  0.24594  0.31228  1.0000
  H   H1610     1.0  0.94261  0.47014  0.08672  1.0000
  H   H1611     1.0  0.61353  0.42151  0.32513  1.0000
  H   H1612     1.0  0.89574  0.37559  0.35330  1.0000
  C   C891      1.0  0.55849  0.28723  0.47896  1.0000
  H   H1613     1.0  0.79102  0.39231  0.41573  1.0000
  H   H1614     1.0  0.55792  0.45805  0.99693  1.0000
  H   H1615     1.0  0.65545  0.25181  0.30565  1.0000
  Fe  Fe106     1.0  0.49960  0.32798  0.08599  1.0000
  H   H1616     1.0  0.97540  0.48814  0.16644  1.0000
  C   C892      1.0  0.80554  0.42893  0.47535  1.0000
  C   C893      1.0  0.90943  0.38344  0.34198  1.0000
  H   H1617     1.0  0.93201  0.45127  0.48631  1.0000
  C   C894      1.0  0.50277  0.34264  0.19486  1.0000
  H   H1618     1.0  0.75664  0.40560  0.44567  1.0000
  C   C895      1.0  0.56756  0.39212  0.00409  1.0000
  H   H1619     1.0  0.69586  0.24732  0.47289  1.0000
  C   C896      1.0  0.94458  0.43534  0.20929  1.0000
  H   H1620     1.0  0.98020  0.45732  0.20554  1.0000
  C   C897      1.0  0.62223  0.44106  0.37117  1.0000
  H   H1621     1.0  0.93179  0.43048  0.22458  1.0000
  C   C898      1.0  0.56216  0.37855  0.46498  1.0000
  H   H1622     1.0  0.58776  0.25707  0.00985  1.0000
  S   S210      1.0  0.92434  0.39570  0.03605  1.0000
  H   H1623     1.0  0.56764  0.44702  0.11147  1.0000
  H   H1624     1.0  0.76271  0.40009  0.17609  1.0000
  H   H1625     1.0  0.65761  0.48243  0.37070  1.0000
  H   H1626     1.0  0.61119  0.46292  0.06708  1.0000
  H   H1627     1.0  0.94578  0.34705  0.42939  1.0000
  C   C899      1.0  0.57734  0.44458  0.05802  1.0000
  H   H1628     1.0  0.78497  0.41945  0.22402  1.0000
  N   N48       1.0  0.93393  0.35563  0.38476  1.0000
  C   C900      1.0  0.56800  0.42068  0.10572  1.0000
  C   C901      1.0  0.78710  0.44344  0.25531  1.0000
  C   C902      1.0  0.52564  0.49085  0.42184  1.0000
  H   H1629     1.0  0.58460  0.43697  0.04612  1.0000
  H   H1630     1.0  0.56295  0.43747  0.04699  1.0000
  H   H1631     1.0  0.84745  0.46893  0.13658  1.0000
  C   C903      1.0  0.94013  0.47999  0.19374  1.0000
  C   C904      1.0  0.98513  0.37148  0.35795  1.0000
  H   H1632     1.0  0.83600  0.40375  0.47146  1.0000
  H   H1633     1.0  0.56140  0.25378  0.47068  1.0000
  H   H1634     1.0  0.56740  0.41864  0.13497  1.0000
  H   H1635     1.0  0.55381  0.41346  0.09368  1.0000
  H   H1636     1.0  0.75641  0.40797  0.09802  1.0000
  H   H1637     1.0  0.84560  0.38280  0.04977  1.0000
  C   C905      1.0  0.97896  0.41587  0.27189  1.0000
  H   H1638     1.0  0.84412  0.46303  0.00781  1.0000
  C   C906      1.0  0.58367  0.41720  0.46889  1.0000
  C   C907      1.0  0.53613  0.25930  0.01046  1.0000
  H   H1639     1.0  0.59407  0.47867  0.99768  1.0000
  H   H1640     1.0  0.84732  0.43475  0.45699  1.0000
  H   H1641     1.0  0.55059  0.28824  0.99712  1.0000
  H   H1642     1.0  0.74952  0.41458  0.38704  1.0000
  H   H1643     1.0  0.80897  0.44350  0.47677  1.0000
  C   C908      1.0  0.51439  0.39315  0.46460  1.0000
  C   C909      1.0  0.92786  0.40363  0.17774  1.0000
  H   H1644     1.0  0.96543  0.34807  0.38389  1.0000
  H   H1645     1.0  0.78467  0.42156  0.29108  1.0000
  H   H1646     1.0  0.64282  0.43114  0.36285  1.0000
  H   H1647     1.0  0.83416  0.39721  0.40582  1.0000
  Fe  Fe107     1.0  0.50035  0.31643  0.00696  1.0000
  C   C910      1.0  0.64261  0.44428  0.37225  1.0000
  H   H1648     1.0  0.94252  0.32627  0.35372  1.0000
  C   C911      1.0  0.50376  0.34879  0.23095  1.0000
  H   H1649     1.0  0.94478  0.36821  0.43714  1.0000
  H   H1650     1.0  0.75146  0.26021  0.01981  1.0000
  C   C912      1.0  0.83478  0.38715  0.42487  1.0000
  C   C913      1.0  0.84411  0.39694  0.46046  1.0000
  C   C914      1.0  0.84290  0.40701  0.99917  1.0000
  C   C915      1.0  0.49525  0.31790  0.25043  1.0000
  S   S211      1.0  0.81778  0.48205  0.38324  1.0000
  S   S212      1.0  0.98332  0.41074  0.42025  1.0000
  H   H1651     1.0  0.84848  0.46482  0.47140  1.0000
  H   H1652     1.0  0.87139  0.40269  0.44611  1.0000
  C   C916      1.0  0.84038  0.46450  0.16205  1.0000
  H   H1653     1.0  0.70932  0.46835  0.34891  1.0000
  N   N49       1.0  0.78837  0.44024  0.18604  1.0000
  H   H1654     1.0  0.73729  0.42607  0.40775  1.0000
  H   H1655     1.0  0.70481  0.45252  0.38460  1.0000
  H   H1656     1.0  0.91145  0.32939  0.43482  1.0000
  H   H1657     1.0  0.76747  0.39391  0.11220  1.0000
  C   C917      1.0  0.90349  0.42900  0.99261  1.0000
  H   H1658     1.0  0.73902  0.43009  0.47434  1.0000
  S   S213      1.0  0.48867  0.27126  0.41086  1.0000
  C   C918      1.0  0.78209  0.42627  0.15473  1.0000
  C   C919      1.0  0.75836  0.46681  0.17121  1.0000
  H   H1659     1.0  0.73513  0.44426  0.01013  1.0000
  S   S214      1.0  0.80140  0.47550  0.00149  1.0000
  H   H1660     1.0  0.92078  0.45103  0.07395  1.0000
  C   C920      1.0  0.74279  0.48770  0.99754  1.0000
  C   C921      1.0  0.78911  0.38670  0.99545  1.0000
  C   C922      1.0  0.71053  0.25175  0.47562  1.0000
  H   H1661     1.0  0.67770  0.49018  0.40095  1.0000
  C   C923      1.0  0.93697  0.35412  0.42434  1.0000
  C   C924      1.0  0.48828  0.25982  0.99516  1.0000
  C   C925      1.0  0.67230  0.45250  0.40568  1.0000
  H   H1662     1.0  0.72834  0.40580  0.47644  1.0000
  C   C926      1.0  0.93018  0.32245  0.36981  1.0000
  H   H1663     1.0  0.76542  0.43027  0.44324  1.0000
  H   H1664     1.0  0.85567  0.44101  0.03161  1.0000
  H   H1665     1.0  0.63928  0.42185  0.42187  1.0000
  H   H1666     1.0  0.52669  0.25156  0.03143  1.0000
  H   H1667     1.0  0.87062  0.45218  0.45649  1.0000
  C   C927      1.0  0.92273  0.33703  0.36610  1.0000
  H   H1668     1.0  0.90835  0.33102  0.37505  1.0000
  C   C928      1.0  0.96875  0.36283  0.38186  1.0000
  H   H1669     1.0  0.63890  0.46647  0.42704  1.0000
  C   C929      1.0  0.91944  0.34377  0.44568  1.0000
  C   C930      1.0  0.68219  0.45931  0.37027  1.0000
  C   C931      1.0  0.93143  0.46449  0.06556  1.0000
  C   C932      1.0  0.86160  0.44871  0.00744  1.0000
  C   C933      1.0  0.85924  0.44447  0.47413  1.0000
  C   C934      1.0  0.64292  0.43583  0.43419  1.0000
  S   S215      1.0  0.50813  0.34559  0.98855  1.0000
  H   H1670     1.0  0.60208  0.34410  0.45299  1.0000
  S   S216      1.0  0.54941  0.35429  0.46261  1.0000
  H   H1671     1.0  0.58718  0.35547  0.45570  1.0000
  H   H1672     1.0  0.64942  0.45421  0.35135  1.0000
  H   H1673     1.0  0.56768  0.28597  0.45863  1.0000
  C   C935      1.0  0.74202  0.41802  0.47800  1.0000
  H   H1674     1.0  0.63771  0.40813  0.48255  1.0000
  C   C936      1.0  0.88294  0.42106  0.99909  1.0000
  H   H1675     1.0  0.75764  0.42153  0.00613  1.0000
  H   H1676     1.0  0.52952  0.28238  0.01950  1.0000
  Fe  Fe108     1.0  0.48713  0.34651  0.02592  1.0000
  H   H1677     1.0  0.57632  0.47534  0.09097  1.0000
  C   C937      1.0  0.89354  0.43611  0.47853  1.0000
  C   C938      1.0  0.73993  0.25927  0.00317  1.0000
  H   H1678     1.0  0.91090  0.42710  0.01641  1.0000
  H   H1679     1.0  0.64385  0.48869  0.07490  1.0000
  H   H1680     1.0  0.82967  0.40777  0.00339  1.0000
  H   H1681     1.0  0.62383  0.48408  0.02021  1.0000
  H   H1682     1.0  0.94335  0.46076  0.15582  1.0000
  C   C939      1.0  0.90657  0.42745  0.46810  1.0000
  H   H1683     1.0  0.70951  0.47631  0.39438  1.0000
  C   C940      1.0  0.59335  0.34775  0.47088  1.0000
  H   H1684     1.0  0.73613  0.38236  0.48379  1.0000
  H   H1685     1.0  0.92556  0.45117  0.43955  1.0000
  C   C941      1.0  0.90533  0.38554  0.00386  1.0000
  C   C942      1.0  0.62058  0.48942  0.04538  1.0000
  C   C943      1.0  0.92587  0.44239  0.46171  1.0000
  H   H1686     1.0  0.87661  0.45306  0.00790  1.0000
  C   C944      1.0  0.72804  0.49107  0.00894  1.0000
  H   H1687     1.0  0.92581  0.45068  0.18668  1.0000
  C   C945      1.0  0.94036  0.46116  0.18468  1.0000
  C   C946      1.0  0.93008  0.48516  0.16415  1.0000
  H   H1688     1.0  0.96129  0.47939  0.24584  1.0000
  C   C947      1.0  0.96861  0.46870  0.30900  1.0000
  N   N50       1.0  0.95315  0.45614  0.20741  1.0000
  H   H1689     1.0  0.84860  0.49142  0.32298  1.0000
  H   H1690     1.0  0.98134  0.46384  0.26318  1.0000
  C   C948      1.0  0.96717  0.45923  0.27233  1.0000
  H   H1691     1.0  0.97705  0.46484  0.32786  1.0000
  C   C949      1.0  0.97143  0.46225  0.19042  1.0000
  H   H1692     1.0  0.51931  0.36371  0.48730  1.0000
  H   H1693     1.0  0.97525  0.48396  0.30727  1.0000
  H   H1694     1.0  0.82386  0.49239  0.28458  1.0000
  H   H1695     1.0  0.91597  0.47398  0.15877  1.0000
  C   C950      1.0  0.98266  0.48319  0.18586  1.0000
  H   H1696     1.0  0.93783  0.48774  0.13929  1.0000
  H   H1697     1.0  0.95411  0.49146  0.19756  1.0000
  H   H1698     1.0  0.98518  0.49110  0.21175  1.0000
  H   H1699     1.0  0.93266  0.33495  0.48779  1.0000
  C   C951      1.0  0.97658  0.49248  0.00484  1.0000
  S   S217      1.0  0.76223  0.49296  0.02786  1.0000
  H   H1700     1.0  0.90255  0.48455  0.98816  1.0000
  C   C952      1.0  0.48931  0.44792  0.48730  1.0000
  H   H1701     1.0  0.66910  0.43732  0.78071  1.0000
  Fe  Fe109     1.0  0.82738  0.34384  0.51215  1.0000
  S   S218      1.0  0.83175  0.36234  0.56087  1.0000
  H   H1702     1.0  0.49230  0.35197  0.87936  1.0000
  Fe  Fe110     1.0  0.78551  0.32054  0.52513  1.0000
  S   S219      1.0  0.78783  0.33877  0.57390  1.0000
  H   H1703     1.0  0.93229  0.35692  0.49739  1.0000
  Fe  Fe111     1.0  0.80543  0.36285  0.54178  1.0000
  S   S220      1.0  0.80404  0.39038  0.54446  1.0000
  Fe  Fe112     1.0  0.81370  0.33654  0.58899  1.0000
  S   S221      1.0  0.82086  0.32949  0.64479  1.0000
  H   H1704     1.0  0.78626  0.27872  0.57111  1.0000
  S   S222      1.0  0.81113  0.31751  0.54123  1.0000
  Fe  Fe113     1.0  0.63339  0.47413  0.58937  1.0000
  H   H1705     1.0  0.73644  0.26061  0.68909  1.0000
  Fe  Fe114     1.0  0.61693  0.46022  0.51294  1.0000
  H   H1706     1.0  0.68846  0.46360  0.51338  1.0000
  H   H1707     1.0  0.54566  0.40494  0.50191  1.0000
  H   H1708     1.0  0.67613  0.47704  0.75116  1.0000
  S   S223      1.0  0.75536  0.29870  0.51292  1.0000
  S   S224      1.0  0.64092  0.45977  0.54408  1.0000
  S   S225      1.0  0.60789  0.47191  0.55938  1.0000
  Fe  Fe115     1.0  0.78311  0.31290  0.93235  1.0000
  S   S226      1.0  0.77067  0.32593  0.89419  1.0000
  H   H1709     1.0  0.55796  0.24918  0.88696  1.0000
  Fe  Fe116     1.0  0.82314  0.34252  0.91986  1.0000
  S   S227      1.0  0.81234  0.35641  0.88065  1.0000
  S   S228      1.0  0.85496  0.35881  0.92285  1.0000
  Fe  Fe117     1.0  0.79100  0.35308  0.91989  1.0000
  H   H1710     1.0  0.95261  0.47381  0.92604  1.0000
  Fe  Fe118     1.0  0.79311  0.32860  0.85686  1.0000
  S   S229      1.0  0.78481  0.32602  0.79656  1.0000
  S   S230      1.0  0.80236  0.34038  0.96067  1.0000
  S   S231      1.0  0.80490  0.31419  0.89355  1.0000
  C   C953      1.0  0.74003  0.31537  0.63190  1.0000
  Fe  Fe119     1.0  0.66431  0.47697  0.91954  1.0000
  S   S232      1.0  0.64424  0.45967  0.87462  1.0000
  S   S233      1.0  0.69178  0.47441  0.92085  1.0000
  S   S234      1.0  0.61816  0.47990  0.89487  1.0000
  Fe  Fe120     1.0  0.62195  0.45538  0.91305  1.0000
  S   S235      1.0  0.59556  0.42860  0.91084  1.0000
  H   H1711     1.0  0.75290  0.47814  0.95306  1.0000
  H   H1712     1.0  0.76666  0.31593  0.62852  1.0000
  S   S236      1.0  0.64179  0.47073  0.95919  1.0000
  H   H1713     1.0  0.86092  0.40163  0.52617  1.0000
  H   H1714     1.0  0.51097  0.41517  0.88139  1.0000
  H   H1715     1.0  0.74788  0.25330  0.90924  1.0000
  H   H1716     1.0  0.76515  0.44944  0.50880  1.0000
  H   H1717     1.0  0.72985  0.36552  0.92217  1.0000
  C   C954      1.0  0.58535  0.41476  0.94731  1.0000
  H   H1718     1.0  0.75404  0.26452  0.61837  1.0000
  C   C955      1.0  0.74321  0.27130  0.97464  1.0000
  H   H1719     1.0  0.52593  0.42589  0.91892  1.0000
  S   S237      1.0  0.63220  0.46281  0.64557  1.0000
  H   H1720     1.0  0.69845  0.25551  0.94412  1.0000
  H   H1721     1.0  0.75559  0.26299  0.74297  1.0000
  H   H1722     1.0  0.52060  0.39060  0.87557  1.0000
  N   N51       1.0  0.51669  0.39799  0.50432  1.0000
  C   C956      1.0  0.72020  0.43204  0.57627  1.0000
  H   H1723     1.0  0.54066  0.42395  0.49817  1.0000
  H   H1724     1.0  0.82614  0.37923  0.97614  1.0000
  C   C957      1.0  0.63513  0.47310  0.68960  1.0000
  C   C958      1.0  0.72033  0.27222  0.58634  1.0000
  C   C959      1.0  0.51380  0.48082  0.49979  1.0000
  H   H1725     1.0  0.57946  0.48882  0.81017  1.0000
  H   H1726     1.0  0.69224  0.46822  0.76225  1.0000
  H   H1727     1.0  0.75969  0.26604  0.67798  1.0000
  H   H1728     1.0  0.72748  0.43245  0.60213  1.0000
  H   H1729     1.0  0.77019  0.44462  0.57496  1.0000
  C   C960      1.0  0.57553  0.38700  0.49280  1.0000
  H   H1730     1.0  0.80298  0.46587  0.58002  1.0000
  H   H1731     1.0  0.51142  0.42211  0.50783  1.0000
  C   C961      1.0  0.54746  0.49068  0.48985  1.0000
  C   C962      1.0  0.81025  0.32829  0.68640  1.0000
  C   C963      1.0  0.81570  0.32096  0.71573  1.0000
  C   C964      1.0  0.80820  0.32029  0.74957  1.0000
  C   C965      1.0  0.79504  0.32687  0.75459  1.0000
  C   C966      1.0  0.78921  0.33372  0.72499  1.0000
  C   C967      1.0  0.79690  0.33463  0.69124  1.0000
  H   H1732     1.0  0.82591  0.31586  0.71228  1.0000
  H   H1733     1.0  0.81238  0.31449  0.77172  1.0000
  H   H1734     1.0  0.77889  0.33867  0.72839  1.0000
  H   H1735     1.0  0.79261  0.34040  0.66908  1.0000
  C   C968      1.0  0.72588  0.47628  0.93997  1.0000
  H   H1736     1.0  0.72460  0.26035  0.63435  1.0000
  H   H1737     1.0  0.50000  0.34266  0.53250  1.0000
  C   C969      1.0  0.49697  0.40501  0.55146  1.0000
  C   C970      1.0  0.51664  0.41209  0.90648  1.0000
  S   S238      1.0  0.49933  0.29438  0.96473  1.0000
  C   C971      1.0  0.75237  0.30626  0.61947  1.0000
  C   C972      1.0  0.48997  0.42704  0.93570  1.0000
  H   H1738     1.0  0.86601  0.47551  0.98767  1.0000
  N   N52       1.0  0.74769  0.28727  0.63274  1.0000
  H   H1739     1.0  0.90148  0.42853  0.54505  1.0000
  C   C973      1.0  0.77988  0.28955  0.62015  1.0000
  C   C974      1.0  0.80290  0.40123  0.50470  1.0000
  H   H1740     1.0  0.75231  0.30613  0.58971  1.0000
  H   H1741     1.0  0.74035  0.31676  0.66150  1.0000
  H   H1742     1.0  0.56247  0.39536  0.91437  1.0000
  N   N53       1.0  0.74038  0.41967  0.95913  1.0000
  C   C975      1.0  0.89174  0.37967  0.94288  1.0000
  C   C976      1.0  0.87402  0.36878  0.95499  1.0000
  H   H1743     1.0  0.75449  0.45176  0.91308  1.0000
  C   C977      1.0  0.49713  0.25149  0.83025  1.0000
  H   H1744     1.0  0.62713  0.44706  0.71454  1.0000
  H   H1745     1.0  0.78522  0.26559  0.61030  1.0000
  C   C978      1.0  0.79122  0.39362  0.96116  1.0000
  C   C979      1.0  0.51487  0.35164  0.53833  1.0000
  H   H1746     1.0  0.87167  0.40897  0.94737  1.0000
  H   H1747     1.0  0.82646  0.40568  0.93788  1.0000
  C   C980      1.0  0.75346  0.24368  0.89980  1.0000
  H   H1748     1.0  0.49214  0.27449  0.81221  1.0000
  C   C981      1.0  0.71241  0.48718  0.98610  1.0000
  H   H1749     1.0  0.87708  0.35917  0.52902  1.0000
  C   C982      1.0  0.76854  0.43803  0.51681  1.0000
  C   C983      1.0  0.70011  0.47211  0.49819  1.0000
  H   H1750     1.0  0.54758  0.30565  0.52190  1.0000
  H   H1751     1.0  0.69582  0.24649  0.59363  1.0000
  H   H1752     1.0  0.51947  0.38653  0.97846  1.0000
  H   H1753     1.0  0.56927  0.47205  0.54736  1.0000
  C   C984      1.0  0.54249  0.41707  0.55218  1.0000
  C   C985      1.0  0.87500  0.41020  0.51701  1.0000
  H   H1754     1.0  0.73912  0.35624  0.51176  1.0000
  H   H1755     1.0  0.51725  0.35572  0.56729  1.0000
  C   C986      1.0  0.56341  0.42752  0.55712  1.0000
  H   H1756     1.0  0.51993  0.29305  0.55807  1.0000
  H   H1757     1.0  0.77167  0.28610  0.73305  1.0000
  H   H1758     1.0  0.72676  0.26530  0.56961  1.0000
  C   C987      1.0  0.72642  0.42622  0.94693  1.0000
  H   H1759     1.0  0.79339  0.45518  0.92846  1.0000
  H   H1760     1.0  0.56686  0.24660  0.95066  1.0000
  N   N54       1.0  0.87441  0.42276  0.48834  1.0000
  C   C988      1.0  0.78272  0.45704  0.91211  1.0000
  H   H1761     1.0  0.53795  0.40518  0.56978  1.0000
  H   H1762     1.0  0.53676  0.42665  0.56106  1.0000
  H   H1763     1.0  0.50462  0.37610  0.92742  1.0000
  H   H1764     1.0  0.51242  0.48006  0.52934  1.0000
  H   H1765     1.0  0.51372  0.42176  0.97536  1.0000
  H   H1766     1.0  0.64981  0.43611  0.80525  1.0000
  C   C989      1.0  0.74142  0.27588  0.49401  1.0000
  H   H1767     1.0  0.70756  0.41878  0.57294  1.0000
  H   H1768     1.0  0.76666  0.45793  0.95593  1.0000
  C   C990      1.0  0.70731  0.41654  0.96340  1.0000
  H   H1769     1.0  0.56900  0.43916  0.53881  1.0000
  H   H1770     1.0  0.56731  0.43317  0.58511  1.0000
  H   H1771     1.0  0.56982  0.41808  0.55167  1.0000
  C   C991      1.0  0.88696  0.41989  0.55123  1.0000
  H   H1772     1.0  0.51746  0.45551  0.50352  1.0000
  H   H1773     1.0  0.90049  0.44667  0.50062  1.0000
  H   H1774     1.0  0.65265  0.44420  0.76038  1.0000
  H   H1775     1.0  0.87995  0.43322  0.94947  1.0000
  H   H1776     1.0  0.72558  0.30721  0.62198  1.0000
  C   C992      1.0  0.52315  0.40133  0.98377  1.0000
  H   H1777     1.0  0.75561  0.42183  0.91132  1.0000
  C   C993      1.0  0.84690  0.42008  0.89986  1.0000
  H   H1778     1.0  0.48943  0.38099  0.86692  1.0000
  H   H1779     1.0  0.54075  0.42192  0.85156  1.0000
  H   H1780     1.0  0.80141  0.43853  0.98360  1.0000
  C   C994      1.0  0.56848  0.39907  0.94124  1.0000
  C   C995      1.0  0.63966  0.48807  0.76101  1.0000
  H   H1781     1.0  0.91161  0.33576  0.49983  1.0000
  H   H1782     1.0  0.98571  0.48534  0.64176  1.0000
  H   H1783     1.0  0.57768  0.37860  0.51278  1.0000
  H   H1784     1.0  0.52265  0.34362  0.53174  1.0000
  H   H1785     1.0  0.51712  0.27593  0.49989  1.0000
  C   C996      1.0  0.69604  0.42734  0.95731  1.0000
  H   H1786     1.0  0.76059  0.37245  0.49505  1.0000
  C   C997      1.0  0.87177  0.42061  0.96432  1.0000
  C   C998      1.0  0.75029  0.37051  0.51547  1.0000
  C   C999      1.0  0.74659  0.33473  0.61759  1.0000
  H   H1787     1.0  0.74634  0.33414  0.58785  1.0000
  H   H1788     1.0  0.73742  0.34088  0.62632  1.0000
  H   H1789     1.0  0.76079  0.34384  0.62807  1.0000
  N   N55       1.0  0.85839  0.36780  0.79313  1.0000
  C   C1000     1.0  0.86824  0.37591  0.75964  1.0000
  C   C1001     1.0  0.87017  0.37851  0.82559  1.0000
  C   C1002     1.0  0.85649  0.34831  0.79461  1.0000
  C   C1003     1.0  0.83945  0.36719  0.79408  1.0000
  C   C1004     1.0  0.83606  0.38203  0.77369  1.0000
  C   C1005     1.0  0.85876  0.36529  0.72375  1.0000
  C   C1006     1.0  0.84838  0.33803  0.82910  1.0000
  C   C1007     1.0  0.87670  0.39966  0.82741  1.0000
  C   C1008     1.0  0.88787  0.40834  0.86227  1.0000
  C   C1009     1.0  0.81703  0.38074  0.78073  1.0000
  C   C1010     1.0  0.86826  0.35431  0.70748  1.0000
  C   C1011     1.0  0.84534  0.31794  0.82617  1.0000
  H   H1790     1.0  0.88260  0.37744  0.76168  1.0000
  H   H1791     1.0  0.86996  0.39024  0.75699  1.0000
  H   H1792     1.0  0.86267  0.37342  0.85048  1.0000
  H   H1793     1.0  0.88271  0.37612  0.82808  1.0000
  H   H1794     1.0  0.87012  0.34824  0.79159  1.0000
  H   H1795     1.0  0.84749  0.33952  0.77192  1.0000
  H   H1796     1.0  0.82880  0.35372  0.78295  1.0000
  H   H1797     1.0  0.83564  0.36777  0.82219  1.0000
  H   H1798     1.0  0.83648  0.37994  0.74439  1.0000
  H   H1799     1.0  0.84637  0.39622  0.78126  1.0000
  H   H1800     1.0  0.84403  0.35598  0.72653  1.0000
  H   H1801     1.0  0.85915  0.37545  0.70382  1.0000
  H   H1802     1.0  0.83504  0.33818  0.83455  1.0000
  H   H1803     1.0  0.85803  0.34451  0.85246  1.0000
  H   H1804     1.0  0.88561  0.40635  0.80503  1.0000
  H   H1805     1.0  0.86485  0.40295  0.82703  1.0000
  H   H1806     1.0  0.89222  0.42348  0.86333  1.0000
  H   H1807     1.0  0.87947  0.40236  0.88574  1.0000
  H   H1808     1.0  0.90038  0.40597  0.86397  1.0000
  H   H1809     1.0  0.80614  0.36710  0.77094  1.0000
  H   H1810     1.0  0.81544  0.38252  0.80973  1.0000
  H   H1811     1.0  0.81501  0.39165  0.76643  1.0000
  H   H1812     1.0  0.86087  0.34730  0.68191  1.0000
  H   H1813     1.0  0.88268  0.36369  0.70163  1.0000
  H   H1814     1.0  0.86815  0.34358  0.72550  1.0000
  H   H1815     1.0  0.85859  0.31726  0.82245  1.0000
  H   H1816     1.0  0.83950  0.31103  0.85122  1.0000
  H   H1817     1.0  0.83562  0.31032  0.80348  1.0000
  C   C1012     1.0  0.72222  0.26964  0.49017  1.0000
  H   H1818     1.0  0.66172  0.46971  0.80762  1.0000
  H   H1819     1.0  0.86179  0.42493  0.89579  1.0000
  C   C1013     1.0  0.49629  0.24371  0.93464  1.0000
  C   C1014     1.0  0.71117  0.47974  0.95132  1.0000
  H   H1820     1.0  0.69230  0.26716  0.59773  1.0000
  H   H1821     1.0  0.50791  0.40816  0.57249  1.0000
  H   H1822     1.0  0.55669  0.45101  0.93229  1.0000
  S   S239      1.0  0.63388  0.48795  0.49077  1.0000
  C   C1015     1.0  0.70997  0.25650  0.96087  1.0000
  C   C1016     1.0  0.79589  0.46213  0.55312  1.0000
  C   C1017     1.0  0.51241  0.29491  0.53443  1.0000
  C   C1018     1.0  0.66009  0.44420  0.78576  1.0000
  H   H1823     1.0  0.54646  0.37591  0.96450  1.0000
  H   H1824     1.0  0.51397  0.30931  0.53492  1.0000
  C   C1019     1.0  0.50438  0.40713  0.51316  1.0000
  C   C1020     1.0  0.49968  0.26252  0.93569  1.0000
  C   C1021     1.0  0.75762  0.42886  0.93829  1.0000
  C   C1022     1.0  0.84118  0.40914  0.93445  1.0000
  C   C1023     1.0  0.74159  0.48037  0.96268  1.0000
  H   H1825     1.0  0.71611  0.44352  0.57694  1.0000
  H   H1826     1.0  0.74587  0.36337  0.95381  1.0000
  H   H1827     1.0  0.50234  0.48385  0.48987  1.0000
  H   H1828     1.0  0.92245  0.47986  0.98455  1.0000
  H   H1829     1.0  0.90683  0.47571  0.92635  1.0000
  H   H1830     1.0  0.59186  0.48529  0.84748  1.0000
  H   H1831     1.0  0.74475  0.44805  0.54925  1.0000
  C   C1024     1.0  0.90725  0.38798  0.96701  1.0000
  H   H1832     1.0  0.68201  0.41953  0.96717  1.0000
  C   C1025     1.0  0.69955  0.26036  0.58300  1.0000
  H   H1833     1.0  0.71031  0.47929  0.81666  1.0000
  H   H1834     1.0  0.74855  0.28133  0.74454  1.0000
  H   H1835     1.0  0.75697  0.37205  0.54252  1.0000
  C   C1026     1.0  0.58616  0.40630  0.49496  1.0000
  C   C1027     1.0  0.73585  0.36922  0.94995  1.0000
  C   C1028     1.0  0.50392  0.27155  0.81983  1.0000
  C   C1029     1.0  0.55331  0.48552  0.52614  1.0000
  H   H1836     1.0  0.82115  0.40322  0.87001  1.0000
  H   H1837     1.0  0.57410  0.47378  0.94385  1.0000
  C   C1030     1.0  0.72758  0.27448  0.62593  1.0000
  C   C1031     1.0  0.96479  0.47905  0.97973  1.0000
  H   H1838     1.0  0.72725  0.39612  0.92161  1.0000
  H   H1839     1.0  0.89357  0.38157  0.91454  1.0000
  H   H1840     1.0  0.74443  0.41735  0.56952  1.0000
  H   H1841     1.0  0.63079  0.46011  0.77681  1.0000
  C   C1032     1.0  0.63168  0.46175  0.71914  1.0000
  C   C1033     1.0  0.63383  0.46913  0.75456  1.0000
  H   H1842     1.0  0.73167  0.44131  0.95234  1.0000
  N   N56       1.0  0.75167  0.41972  0.51395  1.0000
  H   H1843     1.0  0.72516  0.47046  0.91330  1.0000
  H   H1844     1.0  0.72324  0.28570  0.57480  1.0000
  H   H1845     1.0  0.78095  0.44985  0.88554  1.0000
  C   C1034     1.0  0.51957  0.29051  0.49985  1.0000
  C   C1035     1.0  0.73237  0.39913  0.95016  1.0000
  H   H1846     1.0  0.78531  0.30378  0.61051  1.0000
  H   H1847     1.0  0.96634  0.47589  0.61023  1.0000
  C   C1036     1.0  0.75879  0.27938  0.61294  1.0000
  H   H1848     1.0  0.75656  0.27970  0.58350  1.0000
  Fe  Fe121     1.0  0.65760  0.48824  0.52448  1.0000
  H   H1849     1.0  0.96284  0.47143  0.65709  1.0000
  H   H1850     1.0  0.78391  0.43316  0.56172  1.0000
  C   C1037     1.0  0.59350  0.41895  0.98185  1.0000
  H   H1851     1.0  0.78762  0.47205  0.90812  1.0000
  H   H1852     1.0  0.85956  0.44622  0.95056  1.0000
  C   C1038     1.0  0.50796  0.40658  0.97001  1.0000
  H   H1853     1.0  0.72505  0.43446  0.52037  1.0000
  H   H1854     1.0  0.54119  0.47699  0.54155  1.0000
  C   C1039     1.0  0.78950  0.27968  0.60037  1.0000
  H   H1855     1.0  0.72566  0.40545  0.53874  1.0000
  C   C1040     1.0  0.75702  0.27579  0.73017  1.0000
  H   H1856     1.0  0.67852  0.46303  0.82618  1.0000
  H   H1857     1.0  0.76897  0.40648  0.50018  1.0000
  H   H1858     1.0  0.76349  0.40515  0.54555  1.0000
  H   H1859     1.0  0.56617  0.26204  0.51714  1.0000
  H   H1860     1.0  0.53388  0.39755  0.91681  1.0000
  H   H1861     1.0  0.51163  0.38258  0.55296  1.0000
  H   H1862     1.0  0.55253  0.40816  0.86258  1.0000
  C   C1041     1.0  0.56482  0.47494  0.52086  1.0000
  C   C1042     1.0  0.79582  0.41238  0.95710  1.0000
  H   H1863     1.0  0.88161  0.42881  0.56488  1.0000
  H   H1864     1.0  0.80573  0.46150  0.53368  1.0000
  N   N57       1.0  0.50142  0.40155  0.93131  1.0000
  H   H1865     1.0  0.69481  0.42963  0.92839  1.0000
  H   H1866     1.0  0.78381  0.29036  0.64898  1.0000
  H   H1867     1.0  0.80462  0.28762  0.60504  1.0000
  H   H1868     1.0  0.53627  0.40986  0.97120  1.0000
  H   H1869     1.0  0.72416  0.42430  0.91727  1.0000
  C   C1043     1.0  0.90342  0.37567  0.50653  1.0000
  C   C1044     1.0  0.68500  0.47606  0.77346  1.0000
  C   C1045     1.0  0.53667  0.41095  0.51250  1.0000
  H   H1870     1.0  0.84025  0.41613  0.84270  1.0000
  H   H1871     1.0  0.83901  0.39583  0.86407  1.0000
  C   C1046     1.0  0.75760  0.40452  0.51806  1.0000
  H   H1872     1.0  0.87256  0.39682  0.58547  1.0000
  S   S240      1.0  0.78697  0.37922  0.92243  1.0000
  H   H1873     1.0  0.49606  0.40022  0.98761  1.0000
  H   H1874     1.0  0.76610  0.30042  0.67888  1.0000
  C   C1047     1.0  0.77901  0.44346  0.55387  1.0000
  C   C1048     1.0  0.76450  0.44959  0.93093  1.0000
  C   C1049     1.0  0.88680  0.40567  0.57762  1.0000
  C   C1050     1.0  0.49371  0.38084  0.92550  1.0000
  H   H1875     1.0  0.72482  0.36295  0.96922  1.0000
  C   C1051     1.0  0.80708  0.42008  0.50631  1.0000
  H   H1876     1.0  0.79751  0.41780  0.93060  1.0000
  H   H1877     1.0  0.75696  0.39546  0.93721  1.0000
  C   C1052     1.0  0.75081  0.27156  0.69062  1.0000
  H   H1878     1.0  0.49593  0.37107  0.51679  1.0000
  C   C1053     1.0  0.72797  0.26981  0.95365  1.0000
  C   C1054     1.0  0.73276  0.43434  0.54519  1.0000
  H   H1879     1.0  0.89264  0.39678  0.56548  1.0000
  C   C1055     1.0  0.49562  0.27075  0.96585  1.0000
  H   H1880     1.0  0.73006  0.27881  0.93156  1.0000
  C   C1056     1.0  0.83617  0.40805  0.86718  1.0000
  C   C1057     1.0  0.97090  0.48192  0.63786  1.0000
  H   H1881     1.0  0.50332  0.43701  0.92572  1.0000
  C   C1058     1.0  0.75211  0.28915  0.67253  1.0000
  C   C1059     1.0  0.51074  0.38016  0.52355  1.0000
  H   H1882     1.0  0.91122  0.37605  0.53074  1.0000
  C   C1060     1.0  0.91665  0.48969  0.97843  1.0000
  H   H1883     1.0  0.58051  0.45526  0.93440  1.0000
  C   C1061     1.0  0.88402  0.36608  0.50564  1.0000
  H   H1884     1.0  0.81146  0.42784  0.53163  1.0000
  C   C1062     1.0  0.52146  0.36869  0.51572  1.0000
  H   H1885     1.0  0.92072  0.39619  0.95709  1.0000
  H   H1886     1.0  0.70183  0.49176  0.84420  1.0000
  H   H1887     1.0  0.50937  0.24948  0.83830  1.0000
  H   H1888     1.0  0.69486  0.25854  0.55435  1.0000
  C   C1063     1.0  0.55947  0.38793  0.96954  1.0000
  H   H1889     1.0  0.83790  0.43548  0.97076  1.0000
  C   C1064     1.0  0.67143  0.46390  0.80102  1.0000
  C   C1065     1.0  0.54509  0.26753  0.48949  1.0000
  C   C1066     1.0  0.54519  0.41580  0.87391  1.0000
  H   H1890     1.0  0.53638  0.37690  0.52197  1.0000
  H   H1891     1.0  0.59637  0.41271  0.51656  1.0000
  H   H1892     1.0  0.49759  0.28540  0.53608  1.0000
  H   H1893     1.0  0.50543  0.27080  0.91291  1.0000
  C   C1067     1.0  0.73860  0.41840  0.54284  1.0000
  H   H1894     1.0  0.79182  0.47312  0.54566  1.0000
  S   S241      1.0  0.76659  0.28712  0.96574  1.0000
  H   H1895     1.0  0.55505  0.42698  0.89232  1.0000
  H   H1896     1.0  0.90601  0.42184  0.96916  1.0000
  H   H1897     1.0  0.76919  0.42726  0.95179  1.0000
  H   H1898     1.0  0.84376  0.43217  0.90102  1.0000
  H   H1899     1.0  0.48858  0.24972  0.85380  1.0000
  C   C1068     1.0  0.52869  0.40263  0.89406  1.0000
  H   H1900     1.0  0.71898  0.27887  0.64282  1.0000
  H   H1901     1.0  0.74274  0.29352  0.68690  1.0000
  Fe  Fe122     1.0  0.64184  0.48533  0.85960  1.0000
  H   H1902     1.0  0.84160  0.39568  0.92881  1.0000
  H   H1903     1.0  0.51323  0.27450  0.79716  1.0000
  H   H1904     1.0  0.49172  0.40125  0.49525  1.0000
  C   C1069     1.0  0.96182  0.48416  0.94543  1.0000
  H   H1905     1.0  0.89528  0.41287  0.60207  1.0000
  H   H1906     1.0  0.54099  0.25373  0.93640  1.0000
  C   C1070     1.0  0.74240  0.38449  0.51127  1.0000
  H   H1907     1.0  0.87963  0.40005  0.50606  1.0000
  H   H1908     1.0  0.73143  0.38123  0.53068  1.0000
  H   H1909     1.0  0.86587  0.46970  0.50645  1.0000
  C   C1071     1.0  0.85235  0.43721  0.97262  1.0000
  H   H1910     1.0  0.77862  0.43807  0.49740  1.0000
  H   H1911     1.0  0.49791  0.43238  0.55797  1.0000
  N   N58       1.0  0.85244  0.41857  0.96826  1.0000
  H   H1912     1.0  0.51166  0.28094  0.84299  1.0000
  C   C1072     1.0  0.79796  0.42412  0.98704  1.0000
  H   H1913     1.0  0.87358  0.44407  0.52349  1.0000
  H   H1914     1.0  0.49101  0.47292  0.66060  1.0000
  C   C1073     1.0  0.57015  0.45889  0.94676  1.0000
  C   C1074     1.0  0.64092  0.49207  0.69606  1.0000
  H   H1915     1.0  0.56763  0.29369  0.50308  1.0000
  H   H1916     1.0  0.76865  0.25154  0.89960  1.0000
  H   H1917     1.0  0.55675  0.46160  0.50578  1.0000
  C   C1075     1.0  0.74570  0.39018  0.95620  1.0000
  H   H1918     1.0  0.85205  0.42476  0.51602  1.0000
  H   H1919     1.0  0.69946  0.40251  0.95066  1.0000
  H   H1920     1.0  0.73712  0.49117  0.86340  1.0000
  H   H1921     1.0  0.84287  0.45173  0.51127  1.0000
  H   H1922     1.0  0.71139  0.45233  0.49702  1.0000
  C   C1076     1.0  0.86476  0.43377  0.50234  1.0000
  H   H1923     1.0  0.49036  0.42880  0.96532  1.0000
  H   H1924     1.0  0.57735  0.48331  0.50619  1.0000
  H   H1925     1.0  0.56351  0.43908  0.98737  1.0000
  H   H1926     1.0  0.53879  0.26830  0.51504  1.0000
  H   H1927     1.0  0.64882  0.42346  0.52095  1.0000
  C   C1077     1.0  0.91526  0.48994  0.93768  1.0000
  C   C1078     1.0  0.70939  0.49268  0.81928  1.0000
  H   H1928     1.0  0.70257  0.44094  0.97221  1.0000
  H   H1929     1.0  0.72018  0.39142  0.96624  1.0000
  C   C1079     1.0  0.64129  0.42203  0.49491  1.0000
  H   H1930     1.0  0.57069  0.33500  0.50458  1.0000
  H   H1931     1.0  0.53989  0.31756  0.49124  1.0000
  H   H1932     1.0  0.95775  0.46479  0.98682  1.0000
  H   H1933     1.0  0.52806  0.25546  0.98481  1.0000
  H   H1934     1.0  0.62843  0.42325  0.50009  1.0000
  H   H1935     1.0  0.98628  0.46870  0.93434  1.0000
  H   H1936     1.0  0.60218  0.35696  0.49328  1.0000
  C   C1080     1.0  0.48775  0.41766  0.55861  1.0000
  C   C1081     1.0  0.54007  0.30400  0.49566  1.0000
  H   H1937     1.0  0.58519  0.32340  0.50109  1.0000
  C   C1082     1.0  0.55522  0.25564  0.49570  1.0000
  H   H1938     1.0  0.71634  0.27880  0.49835  1.0000
  S   S242      1.0  0.80141  0.34525  0.49205  1.0000
  C   C1083     1.0  0.56846  0.45426  0.98616  1.0000
  C   C1084     1.0  0.85378  0.45850  0.49204  1.0000
  C   C1085     1.0  0.70219  0.48952  0.48820  1.0000
  H   H1939     1.0  0.60668  0.43077  0.98671  1.0000
  H   H1940     1.0  0.90917  0.44398  0.98776  1.0000
  H   H1941     1.0  0.84988  0.38436  0.98384  1.0000
  H   H1942     1.0  0.75187  0.39314  0.98386  1.0000
  C   C1086     1.0  0.71331  0.46581  0.48909  1.0000
  H   H1943     1.0  0.90797  0.41877  0.48932  1.0000
  H   H1944     1.0  0.50678  0.50974  0.18430  1.0000
  N   N59       1.0  0.49404  0.70271  0.03460  1.0000
  Fe  Fe123     1.0  0.81600  0.49755  0.43276  1.0000
  C   C1087     1.0  0.90320  0.53657  0.47035  1.0000
  S   S243      1.0  0.81767  0.51405  0.05190  1.0000
  H   H1945     1.0  0.49312  0.69634  0.39143  1.0000
  C   C1088     1.0  0.60713  0.58023  0.36205  1.0000
  Fe  Fe124     1.0  0.51328  0.54364  0.39944  1.0000
  N   N60       1.0  0.85298  0.54350  0.36108  1.0000
  Fe  Fe125     1.0  0.53798  0.57510  0.35439  1.0000
  S   S244      1.0  0.55908  0.58782  0.40018  1.0000
  S   S245      1.0  0.53875  0.58745  0.29993  1.0000
  Fe  Fe126     1.0  0.55474  0.55860  0.41041  1.0000
  S   S246      1.0  0.57546  0.54629  0.41288  1.0000
  Fe  Fe127     1.0  0.53453  0.58176  0.43428  1.0000
  H   H1946     1.0  0.90204  0.49438  0.04299  1.0000
  S   S247      1.0  0.53538  0.54669  0.36203  1.0000
  S   S248      1.0  0.51394  0.57101  0.38803  1.0000
  Fe  Fe128     1.0  0.54593  0.58470  0.03246  1.0000
  S   S249      1.0  0.52995  0.57203  0.08078  1.0000
  H   H1947     1.0  0.86632  0.49951  0.35846  1.0000
  Fe  Fe129     1.0  0.55752  0.55288  0.02014  1.0000
  S   S250      1.0  0.54172  0.53796  0.06685  1.0000
  H   H1948     1.0  0.53201  0.72816  0.44685  1.0000
  Fe  Fe130     1.0  0.51970  0.54554  0.04786  1.0000
  C   C1089     1.0  0.91337  0.50790  0.05195  1.0000
  Fe  Fe131     1.0  0.55340  0.56558  0.09675  1.0000
  S   S251      1.0  0.56249  0.56319  0.15398  1.0000
  H   H1949     1.0  0.51743  0.66846  0.00849  1.0000
  S   S252      1.0  0.57084  0.58047  0.05074  1.0000
  C   C1090     1.0  0.86400  0.52142  0.32898  1.0000
  C   C1091     1.0  0.54483  0.58008  0.25941  1.0000
  C   C1092     1.0  0.55093  0.56633  0.25837  1.0000
  C   C1093     1.0  0.55627  0.56131  0.22586  1.0000
  C   C1094     1.0  0.55507  0.56960  0.19390  1.0000
  C   C1095     1.0  0.54852  0.58302  0.19477  1.0000
  C   C1096     1.0  0.54356  0.58832  0.22744  1.0000
  H   H1950     1.0  0.55149  0.55959  0.28261  1.0000
  H   H1951     1.0  0.56121  0.55083  0.22535  1.0000
  H   H1952     1.0  0.54772  0.58965  0.17044  1.0000
  H   H1953     1.0  0.53886  0.59898  0.22799  1.0000
  H   H1954     1.0  0.83245  0.53317  0.40074  1.0000
  H   H1955     1.0  0.51316  0.68302  0.07108  1.0000
  H   H1956     1.0  0.88430  0.52949  0.05926  1.0000
  C   C1097     1.0  0.83557  0.54208  0.37720  1.0000
  H   H1957     1.0  0.60269  0.55103  0.02308  1.0000
  H   H1958     1.0  0.57546  0.56140  0.32825  1.0000
  C   C1098     1.0  0.60192  0.54024  0.00433  1.0000
  H   H1959     1.0  0.56309  0.52640  0.28335  1.0000
  C   C1099     1.0  0.60285  0.59480  0.30681  1.0000
  C   C1100     1.0  0.51225  0.60886  0.02035  1.0000
  H   H1960     1.0  0.51051  0.50819  0.10304  1.0000
  C   C1101     1.0  0.89532  0.57921  0.42003  1.0000
  H   H1961     1.0  0.85903  0.55328  0.25242  1.0000
  S   S253      1.0  0.53220  0.55369  0.44809  1.0000
  H   H1962     1.0  0.95238  0.50069  0.43794  1.0000
  H   H1963     1.0  0.87794  0.54483  0.38821  1.0000
  C   C1102     1.0  0.50211  0.53894  0.21519  1.0000
  C   C1103     1.0  0.53046  0.50414  0.45526  1.0000
  H   H1964     1.0  0.49843  0.72116  0.99092  1.0000
  H   H1965     1.0  0.62370  0.61060  0.36751  1.0000
  H   H1966     1.0  0.49113  0.67531  0.01900  1.0000
  H   H1967     1.0  0.86349  0.50639  0.42467  1.0000
  C   C1104     1.0  0.80262  0.50372  0.19960  1.0000
  H   H1968     1.0  0.94754  0.49567  0.03200  1.0000
  H   H1969     1.0  0.53761  0.70149  0.44942  1.0000
  S   S254      1.0  0.92749  0.54453  0.46833  1.0000
  C   C1105     1.0  0.96571  0.53500  0.03935  1.0000
  N   N61       1.0  0.93123  0.51080  0.03561  1.0000
  C   C1106     1.0  0.49799  0.61427  0.01518  1.0000
  C   C1107     1.0  0.58889  0.60040  0.32460  1.0000
  H   H1970     1.0  0.82932  0.54898  0.30583  1.0000
  C   C1108     1.0  0.86448  0.52490  0.46803  1.0000
  C   C1109     1.0  0.65910  0.50166  0.41237  1.0000
  H   H1971     1.0  0.87830  0.53145  0.33683  1.0000
  H   H1972     1.0  0.52938  0.51766  0.13643  1.0000
  H   H1973     1.0  0.56969  0.51429  0.05120  1.0000
  H   H1974     1.0  0.89735  0.51707  0.42572  1.0000
  C   C1110     1.0  0.87225  0.51698  0.44408  1.0000
  C   C1111     1.0  0.81701  0.55719  0.40438  1.0000
  C   C1112     1.0  0.58746  0.61624  0.30539  1.0000
  H   H1975     1.0  0.62325  0.56588  0.31895  1.0000
  N   N62       1.0  0.50361  0.70724  0.44538  1.0000
  H   H1976     1.0  0.48940  0.67330  0.08036  1.0000
  H   H1977     1.0  0.56000  0.50208  0.47967  1.0000
  H   H1978     1.0  0.60098  0.62859  0.30614  1.0000
  H   H1979     1.0  0.59311  0.60514  0.35292  1.0000
  H   H1980     1.0  0.90380  0.57148  0.42058  1.0000
  S   S255      1.0  0.54626  0.60999  0.00512  1.0000
  H   H1981     1.0  0.50013  0.52528  0.22441  1.0000
  H   H1982     1.0  0.52563  0.66933  0.46997  1.0000
  C   C1113     1.0  0.60188  0.52099  0.46733  1.0000
  C   C1114     1.0  0.98525  0.51093  0.99578  1.0000
  H   H1983     1.0  0.61104  0.59993  0.42699  1.0000
  H   H1984     1.0  0.85944  0.56874  0.33312  1.0000
  H   H1985     1.0  0.50664  0.58713  0.12578  1.0000
  H   H1986     1.0  0.49302  0.62622  0.42553  1.0000
  S   S256      1.0  0.84056  0.51938  0.46587  1.0000
  H   H1987     1.0  0.51852  0.54100  0.15271  1.0000
  C   C1115     1.0  0.50770  0.68743  0.12520  1.0000
  S   S257      1.0  0.48975  0.52576  0.04683  1.0000
  Fe  Fe132     1.0  0.82958  0.49791  0.01962  1.0000
  H   H1988     1.0  0.49845  0.53055  0.12418  1.0000
  H   H1989     1.0  0.51728  0.54706  0.21471  1.0000
  C   C1116     1.0  0.49663  0.55652  0.16795  1.0000
  C   C1117     1.0  0.50264  0.68569  0.08518  1.0000
  H   H1990     1.0  0.72874  0.49682  0.03570  1.0000
  C   C1118     1.0  0.96313  0.50054  0.45556  1.0000
  S   S258      1.0  0.48758  0.51693  0.39837  1.0000
  C   C1119     1.0  0.58494  0.54387  0.48430  1.0000
  C   C1120     1.0  0.51688  0.73823  0.41304  1.0000
  H   H1991     1.0  0.52691  0.70165  0.02475  1.0000
  H   H1992     1.0  0.51344  0.54581  0.28673  1.0000
  H   H1993     1.0  0.94466  0.53333  0.07513  1.0000
  H   H1994     1.0  0.83605  0.55028  0.24204  1.0000
  H   H1995     1.0  0.60898  0.56836  0.37257  1.0000
  C   C1121     1.0  0.85680  0.55421  0.32737  1.0000
  H   H1996     1.0  0.80596  0.55070  0.38312  1.0000
  H   H1997     1.0  0.81377  0.54807  0.42752  1.0000
  H   H1998     1.0  0.88960  0.57550  0.36323  1.0000
  C   C1122     1.0  0.51478  0.50752  0.13126  1.0000
  C   C1123     1.0  0.84761  0.55596  0.26247  1.0000
  H   H1999     1.0  0.97561  0.55183  0.40868  1.0000
  H   H2000     1.0  0.74295  0.50293  0.44580  1.0000
  H   H2001     1.0  0.63555  0.55787  0.26404  1.0000
  C   C1124     1.0  0.89148  0.52300  0.44489  1.0000
  H   H2002     1.0  0.52414  0.71548  0.40563  1.0000
  H   H2003     1.0  0.86134  0.52361  0.30061  1.0000
  C   C1125     1.0  0.50367  0.53094  0.15204  1.0000
  H   H2004     1.0  0.83941  0.49691  0.22674  1.0000
  H   H2005     1.0  0.91480  0.50751  0.08160  1.0000
  C   C1126     1.0  0.84978  0.52385  0.35291  1.0000
  H   H2006     1.0  0.49538  0.55093  0.30265  1.0000
  H   H2007     1.0  0.63484  0.56858  0.22273  1.0000
  H   H2008     1.0  0.59375  0.52279  0.41264  1.0000
  H   H2009     1.0  0.66612  0.51362  0.39532  1.0000
  C   C1127     1.0  0.50206  0.70359  0.07199  1.0000
  H   H2010     1.0  0.63688  0.59756  0.37045  1.0000
  H   H2011     1.0  0.62400  0.58655  0.42990  1.0000
  C   C1128     1.0  0.86873  0.55176  0.38907  1.0000
  H   H2012     1.0  0.85222  0.57109  0.26594  1.0000
  H   H2013     1.0  0.94224  0.54049  0.03125  1.0000
  H   H2014     1.0  0.87246  0.50041  0.31241  1.0000
  C   C1129     1.0  0.96801  0.51113  0.48784  1.0000
  C   C1130     1.0  0.62379  0.59783  0.37753  1.0000
  H   H2015     1.0  0.51654  0.71448  0.07467  1.0000
  H   H2016     1.0  0.78192  0.50385  0.23457  1.0000
  C   C1131     1.0  0.49879  0.54283  0.28215  1.0000
  C   C1132     1.0  0.49992  0.73720  0.03925  1.0000
  H   H2017     1.0  0.59862  0.59212  0.27783  1.0000
  C   C1133     1.0  0.49165  0.57788  0.12472  1.0000
  H   H2018     1.0  0.94589  0.50300  0.07623  1.0000
  C   C1134     1.0  0.59352  0.52700  0.44023  1.0000
  H   H2019     1.0  0.83622  0.53153  0.29232  1.0000
  H   H2020     1.0  0.96752  0.53256  0.01093  1.0000
  H   H2021     1.0  0.64416  0.49788  0.41117  1.0000
  C   C1135     1.0  0.79428  0.50192  0.23281  1.0000
  H   H2022     1.0  0.50597  0.68168  0.43563  1.0000
  H   H2023     1.0  0.63346  0.58987  0.31234  1.0000
  C   C1136     1.0  0.90648  0.52272  0.04482  1.0000
  C   C1137     1.0  0.88160  0.57269  0.38783  1.0000
  C   C1138     1.0  0.51757  0.69524  0.00091  1.0000
  C   C1139     1.0  0.84119  0.54654  0.29771  1.0000
  H   H2024     1.0  0.54180  0.51181  0.38511  1.0000
  H   H2025     1.0  0.54351  0.51659  0.45057  1.0000
  H   H2026     1.0  0.50323  0.56353  0.24378  1.0000
  H   H2027     1.0  0.84947  0.51700  0.37855  1.0000
  H   H2028     1.0  0.84604  0.56707  0.41244  1.0000
  H   H2029     1.0  0.88799  0.57712  0.44542  1.0000
  H   H2030     1.0  0.51195  0.60892  0.42356  1.0000
  H   H2031     1.0  0.50850  0.67468  0.13363  1.0000
  C   C1140     1.0  0.86270  0.50197  0.33088  1.0000
  H   H2032     1.0  0.64889  0.50993  0.05307  1.0000
  C   C1141     1.0  0.50307  0.72171  0.01943  1.0000
  C   C1142     1.0  0.52744  0.50115  0.38745  1.0000
  H   H2033     1.0  0.58248  0.61199  0.27711  1.0000
  S   S259      1.0  0.79054  0.49578  0.30473  1.0000
  H   H2034     1.0  0.91617  0.53639  0.05694  1.0000
  H   H2035     1.0  0.62901  0.54305  0.01932  1.0000
  C   C1143     1.0  0.62072  0.57693  0.30615  1.0000
  H   H2036     1.0  0.82348  0.53471  0.35830  1.0000
  C   C1144     1.0  0.49869  0.62653  0.98848  1.0000
  H   H2037     1.0  0.60847  0.51228  0.46049  1.0000
  H   H2038     1.0  0.63581  0.61140  0.42915  1.0000
  S   S260      1.0  0.79348  0.50408  0.40937  1.0000
  H   H2039     1.0  0.90535  0.56679  0.99302  1.0000
  H   H2040     1.0  0.64904  0.58253  0.26022  1.0000
  H   H2041     1.0  0.52129  0.69937  0.13124  1.0000
  H   H2042     1.0  0.60681  0.56169  0.25534  1.0000
  H   H2043     1.0  0.51822  0.72665  0.01922  1.0000
  C   C1145     1.0  0.88791  0.51774  0.06126  1.0000
  H   H2044     1.0  0.56548  0.50052  0.09002  1.0000
  C   C1146     1.0  0.62361  0.59896  0.41837  1.0000
  C   C1147     1.0  0.63579  0.57049  0.25236  1.0000
  C   C1148     1.0  0.51985  0.72192  0.42802  1.0000
  H   H2045     1.0  0.81733  0.57056  0.41348  1.0000
  H   H2046     1.0  0.97432  0.56443  0.03252  1.0000
  H   H2047     1.0  0.87379  0.58103  0.38800  1.0000
  H   H2048     1.0  0.49321  0.53682  0.46662  1.0000
  C   C1149     1.0  0.61963  0.57377  0.26485  1.0000
  H   H2049     1.0  0.51144  0.59938  0.04089  1.0000
  H   H2050     1.0  0.55825  0.52758  0.33008  1.0000
  H   H2051     1.0  0.97065  0.52663  0.05560  1.0000
  H   H2052     1.0  0.57745  0.62003  0.31882  1.0000
  H   H2053     1.0  0.51217  0.51947  0.99467  1.0000
  H   H2054     1.0  0.51363  0.49345  0.13515  1.0000
  C   C1150     1.0  0.92940  0.50904  0.99520  1.0000
  C   C1151     1.0  0.50971  0.61420  0.44892  1.0000
  H   H2055     1.0  0.86973  0.55525  0.31599  1.0000
  H   H2056     1.0  0.83595  0.51546  0.33979  1.0000
  H   H2057     1.0  0.87397  0.54322  0.00611  1.0000
  H   H2058     1.0  0.50568  0.73334  0.39196  1.0000
  H   H2059     1.0  0.71961  0.51394  0.46109  1.0000
  C   C1152     1.0  0.58504  0.53852  0.44848  1.0000
  H   H2060     1.0  0.62015  0.58610  0.25142  1.0000
  H   H2061     1.0  0.86343  0.54902  0.41652  1.0000
  H   H2062     1.0  0.90463  0.59415  0.41841  1.0000
  H   H2063     1.0  0.88832  0.51475  0.08998  1.0000
  H   H2064     1.0  0.49701  0.56773  0.00031  1.0000
  C   C1153     1.0  0.61686  0.53571  0.00205  1.0000
  C   C1154     1.0  0.58719  0.54244  0.31848  1.0000
  H   H2065     1.0  0.92907  0.49801  0.17245  1.0000
  H   H2066     1.0  0.59454  0.57953  0.37455  1.0000
  C   C1155     1.0  0.58683  0.56126  0.31241  1.0000
  H   H2067     1.0  0.57501  0.58863  0.32379  1.0000
  H   H2068     1.0  0.59664  0.54021  0.30021  1.0000
  H   H2069     1.0  0.59170  0.54158  0.34630  1.0000
  C   C1156     1.0  0.80176  0.49771  0.26370  1.0000
  H   H2070     1.0  0.98300  0.56766  0.37288  1.0000
  H   H2071     1.0  0.83857  0.57017  0.36814  1.0000
  C   C1157     1.0  0.52775  0.61615  0.99959  1.0000
  H   H2072     1.0  0.79669  0.50700  0.17617  1.0000
  N   N63       1.0  0.60444  0.57834  0.32184  1.0000
  H   H2073     1.0  0.61646  0.60713  0.30796  1.0000
  H   H2074     1.0  0.51164  0.56592  0.16851  1.0000
  C   C1158     1.0  0.48802  0.69900  0.41730  1.0000
  H   H2075     1.0  0.58241  0.56112  0.28396  1.0000
  C   C1159     1.0  0.63843  0.49878  0.06826  1.0000
  C   C1160     1.0  0.97829  0.55533  0.04891  1.0000
  C   C1161     1.0  0.56578  0.50010  0.06036  1.0000
  C   C1162     1.0  0.81888  0.50178  0.19703  1.0000
  C   C1163     1.0  0.49894  0.62400  0.45014  1.0000
  Fe  Fe133     1.0  0.81818  0.49684  0.09864  1.0000
  C   C1164     1.0  0.56811  0.52644  0.31131  1.0000
  H   H2076     1.0  0.49867  0.68415  0.47889  1.0000
  C   C1165     1.0  0.94532  0.53027  0.04610  1.0000
  H   H2077     1.0  0.49408  0.55351  0.10865  1.0000
  C   C1166     1.0  0.83565  0.56048  0.39016  1.0000
  H   H2078     1.0  0.66469  0.50599  0.44029  1.0000
  H   H2079     1.0  0.97764  0.55855  0.07773  1.0000
  H   H2080     1.0  0.56873  0.51313  0.31543  1.0000
  H   H2081     1.0  0.49070  0.56265  0.18777  1.0000
  C   C1167     1.0  0.50822  0.69198  0.45796  1.0000
  C   C1168     1.0  0.81791  0.49556  0.26109  1.0000
  H   H2082     1.0  0.49456  0.70801  0.09170  1.0000
  S   S261      1.0  0.83048  0.50493  0.15621  1.0000
  C   C1169     1.0  0.93783  0.49736  0.05049  1.0000
  C   C1170     1.0  0.49548  0.54826  0.24472  1.0000
  C   C1171     1.0  0.49717  0.68957  0.00929  1.0000
  H   H2083     1.0  0.87694  0.50563  0.04656  1.0000
  H   H2084     1.0  0.90490  0.52408  0.01578  1.0000
  H   H2085     1.0  0.61613  0.50010  0.03852  1.0000
  C   C1172     1.0  0.73106  0.49421  0.46022  1.0000
  H   H2086     1.0  0.49006  0.52791  0.28570  1.0000
  S   S262      1.0  0.53181  0.59958  0.48030  1.0000
  S   S263      1.0  0.53413  0.55839  0.99869  1.0000
  H   H2087     1.0  0.59334  0.50346  0.05905  1.0000
  N   N64       1.0  0.49353  0.53736  0.17814  1.0000
  C   C1173     1.0  0.50243  0.51142  0.15686  1.0000
  C   C1174     1.0  0.49710  0.71525  0.47574  1.0000
  H   H2088     1.0  0.63619  0.50506  0.09332  1.0000
  H   H2089     1.0  0.51953  0.50894  0.45515  1.0000
  H   H2090     1.0  0.49711  0.68923  0.14087  1.0000
  H   H2091     1.0  0.49173  0.72491  0.46569  1.0000
  H   H2092     1.0  0.50225  0.73721  0.06860  1.0000
  C   C1175     1.0  0.82664  0.49804  0.22817  1.0000
  C   C1176     1.0  0.71773  0.50043  0.46899  1.0000
  C   C1177     1.0  0.48813  0.55795  0.13102  1.0000
  C   C1178     1.0  0.49584  0.63102  0.48282  1.0000
  C   C1179     1.0  0.51792  0.61167  0.48037  1.0000
  C   C1180     1.0  0.52823  0.69747  0.47207  1.0000
  H   H2093     1.0  0.51806  0.50785  0.38711  1.0000
  H   H2094     1.0  0.48819  0.50081  0.15036  1.0000
  C   C1181     1.0  0.57970  0.49335  0.04791  1.0000
  H   H2095     1.0  0.57943  0.49355  0.01835  1.0000
  H   H2096     1.0  0.90863  0.49874  0.92934  1.0000
  C   C1182     1.0  0.64212  0.54981  0.89084  1.0000
  H   H2097     1.0  0.55068  0.52350  0.51299  1.0000
  Fe  Fe134     1.0  0.97001  0.57460  0.58455  1.0000
  S   S264      1.0  0.96701  0.58759  0.53302  1.0000
  S   S265      1.0  0.96139  0.58055  0.63946  1.0000
  Fe  Fe135     1.0  0.95163  0.55830  0.50999  1.0000
  Fe  Fe136     1.0  0.62592  0.49971  0.53843  1.0000
  S   S266      1.0  0.95315  0.54557  0.56187  1.0000
  Fe  Fe137     1.0  0.95707  0.56532  0.91659  1.0000
  S   S267      1.0  0.95565  0.54948  0.86496  1.0000
  H   H2098     1.0  0.54561  0.58666  0.93201  1.0000
  H   H2099     1.0  0.54361  0.60741  0.92086  1.0000
  H   H2100     1.0  0.52175  0.70553  0.97970  1.0000
  N   N65       1.0  0.53199  0.49635  0.49084  1.0000
  H   H2101     1.0  0.50121  0.74175  0.87451  1.0000
  H   H2102     1.0  0.64366  0.50102  0.67370  1.0000
  H   H2103     1.0  0.53200  0.52945  0.58028  1.0000
  S   S268      1.0  0.98295  0.59039  0.90208  1.0000
  H   H2104     1.0  0.53942  0.50715  0.54571  1.0000
  H   H2105     1.0  0.72655  0.53095  0.70637  1.0000
  H   H2106     1.0  0.56198  0.49830  0.54249  1.0000
  H   H2107     1.0  0.59364  0.54257  0.53889  1.0000
  S   S269      1.0  0.61334  0.52038  0.53832  1.0000
  C   C1183     1.0  0.73725  0.50498  0.86272  1.0000
  H   H2108     1.0  0.51348  0.71463  0.52262  1.0000
  H   H2109     1.0  0.67970  0.49937  0.82091  1.0000
  H   H2110     1.0  0.95626  0.57028  0.76871  1.0000
  C   C1184     1.0  0.52981  0.68125  0.48950  1.0000
  H   H2111     1.0  0.68453  0.54837  0.89990  1.0000
  H   H2112     1.0  0.50757  0.67825  0.84113  1.0000
  C   C1185     1.0  0.64521  0.55658  0.76928  1.0000
  C   C1186     1.0  0.50371  0.73481  0.53326  1.0000
  H   H2113     1.0  0.49722  0.54078  0.72378  1.0000
  C   C1187     1.0  0.68793  0.53617  0.81539  1.0000
  H   H2114     1.0  0.59956  0.54509  0.86371  1.0000
  C   C1188     1.0  0.61172  0.54864  0.88226  1.0000
  H   H2115     1.0  0.53505  0.68339  0.98032  1.0000
  C   C1189     1.0  0.50863  0.57902  0.93161  1.0000
  H   H2116     1.0  0.52498  0.71822  0.81727  1.0000
  C   C1190     1.0  0.87619  0.53845  0.49347  1.0000
  H   H2117     1.0  0.54314  0.54653  0.54736  1.0000
  H   H2118     1.0  0.64768  0.51416  0.73609  1.0000
  H   H2119     1.0  0.95604  0.52193  0.75444  1.0000
  H   H2120     1.0  0.60748  0.58766  0.91505  1.0000
  H   H2121     1.0  0.70734  0.52724  0.83611  1.0000
  H   H2122     1.0  0.92712  0.53564  0.66812  1.0000
  H   H2123     1.0  0.96358  0.49773  0.69872  1.0000
  H   H2124     1.0  0.67794  0.52938  0.83620  1.0000
  C   C1191     1.0  0.51109  0.72502  0.50726  1.0000
  C   C1192     1.0  0.60213  0.52665  0.50311  1.0000
  C   C1193     1.0  0.72956  0.50744  0.82652  1.0000
  H   H2125     1.0  0.75165  0.51567  0.86729  1.0000
  H   H2126     1.0  0.52084  0.69858  0.86966  1.0000
  S   S270      1.0  0.64296  0.49824  0.80518  1.0000
  C   C1194     1.0  0.98257  0.51597  0.96138  1.0000
  H   H2127     1.0  0.92414  0.52854  0.62149  1.0000
  C   C1195     1.0  0.59296  0.49443  0.82512  1.0000
  S   S271      1.0  0.97787  0.55825  0.49154  1.0000
  C   C1196     1.0  0.63699  0.54377  0.79999  1.0000
  Fe  Fe138     1.0  0.98259  0.57334  0.85255  1.0000
  C   C1197     1.0  0.51322  0.70434  0.81665  1.0000
  H   H2128     1.0  0.51965  0.54038  0.55779  1.0000
  C   C1198     1.0  0.96985  0.52220  0.75618  1.0000
  C   C1199     1.0  0.90322  0.53184  0.93767  1.0000
  C   C1200     1.0  0.88537  0.51847  0.94514  1.0000
  H   H2129     1.0  0.91114  0.52876  0.91806  1.0000
  S   S272      1.0  0.68593  0.49834  0.49875  1.0000
  C   C1201     1.0  0.54127  0.59344  0.91068  1.0000
  C   C1202     1.0  0.97362  0.50785  0.68119  1.0000
  H   H2130     1.0  0.61540  0.51641  0.88605  1.0000
  H   H2131     1.0  0.94408  0.56881  0.70629  1.0000
  H   H2132     1.0  0.94961  0.51977  0.62650  1.0000
  C   C1203     1.0  0.49790  0.51149  0.98632  1.0000
  C   C1204     1.0  0.64319  0.49948  0.73153  1.0000
  H   H2133     1.0  0.52104  0.61676  0.53760  1.0000
  C   C1205     1.0  0.97064  0.58025  0.68309  1.0000
  H   H2134     1.0  0.49059  0.72477  0.54402  1.0000
  C   C1206     1.0  0.97073  0.50266  0.93627  1.0000
  C   C1207     1.0  0.58629  0.53121  0.98155  1.0000
  C   C1208     1.0  0.96560  0.57488  0.74708  1.0000
  C   C1209     1.0  0.95873  0.57405  0.71161  1.0000
  H   H2135     1.0  0.96969  0.52245  0.81424  1.0000
  H   H2136     1.0  0.66489  0.55443  0.85615  1.0000
  H   H2137     1.0  0.64217  0.56764  0.83526  1.0000
  C   C1210     1.0  0.95549  0.52604  0.68497  1.0000
  H   H2138     1.0  0.73091  0.52169  0.82636  1.0000
  H   H2139     1.0  0.54996  0.59503  0.88741  1.0000
  H   H2140     1.0  0.65358  0.53112  0.87154  1.0000
  C   C1211     1.0  0.96794  0.49930  0.64265  1.0000
  H   H2141     1.0  0.52093  0.67683  0.51285  1.0000
  H   H2142     1.0  0.49738  0.57539  0.58290  1.0000
  H   H2143     1.0  0.59979  0.50192  0.93647  1.0000
  C   C1212     1.0  0.53731  0.51183  0.51904  1.0000
  H   H2144     1.0  0.69487  0.51517  0.72805  1.0000
  H   H2145     1.0  0.94505  0.51274  0.69469  1.0000
  C   C1213     1.0  0.61840  0.56919  0.89454  1.0000
  H   H2146     1.0  0.50413  0.50055  0.93811  1.0000
  H   H2147     1.0  0.52431  0.73555  0.49806  1.0000
  H   H2148     1.0  0.62790  0.57266  0.91852  1.0000
  C   C1214     1.0  0.58563  0.51726  0.95727  1.0000
  S   S273      1.0  0.66295  0.50295  0.90225  1.0000
  N   N66       1.0  0.62569  0.54367  0.86492  1.0000
  C   C1215     1.0  0.50366  0.62809  0.51440  1.0000
  C   C1216     1.0  0.60230  0.57302  0.90537  1.0000
  C   C1217     1.0  0.70240  0.50681  0.72247  1.0000
  C   C1218     1.0  0.52853  0.62854  0.97307  1.0000
  H   H2149     1.0  0.51757  0.58913  0.87778  1.0000
  C   C1219     1.0  0.51850  0.69266  0.84180  1.0000
  C   C1220     1.0  0.49516  0.57116  0.55401  1.0000
  C   C1221     1.0  0.59802  0.51406  0.83944  1.0000
  C   C1222     1.0  0.92856  0.52591  0.64826  1.0000
  C   C1223     1.0  0.98209  0.53331  0.72575  1.0000
  N   N67       1.0  0.49101  0.71954  0.80983  1.0000
  H   H2150     1.0  0.67860  0.50513  0.77608  1.0000
  H   H2151     1.0  0.50775  0.58003  0.54009  1.0000
  H   H2152     1.0  0.52079  0.52595  0.50053  1.0000
  H   H2153     1.0  0.62555  0.57854  0.87295  1.0000
  H   H2154     1.0  0.96078  0.51916  0.49514  1.0000
  H   H2155     1.0  0.64726  0.53918  0.80964  1.0000
  H   H2156     1.0  0.53135  0.69233  0.83316  1.0000
  H   H2157     1.0  0.63513  0.56107  0.75767  1.0000
  C   C1224     1.0  0.67303  0.55112  0.90913  1.0000
  S   S274      1.0  0.96677  0.50922  0.89386  1.0000
  H   H2158     1.0  0.59248  0.57050  0.88224  1.0000
  H   H2159     1.0  0.51335  0.57199  0.95179  1.0000
  C   C1225     1.0  0.97851  0.53079  0.79297  1.0000
  H   H2160     1.0  0.71019  0.53396  0.78998  1.0000
  H   H2161     1.0  0.51474  0.64280  0.94634  1.0000
  H   H2162     1.0  0.95310  0.49511  0.63714  1.0000
  H   H2163     1.0  0.95684  0.54342  0.64024  1.0000
  H   H2164     1.0  0.62631  0.51823  0.84576  1.0000
  H   H2165     1.0  0.60641  0.54034  0.90622  1.0000
  C   C1226     1.0  0.49511  0.70501  0.82732  1.0000
  C   C1227     1.0  0.63098  0.55342  0.83009  1.0000
  H   H2166     1.0  0.63768  0.54344  0.91712  1.0000
  H   H2167     1.0  0.87041  0.54473  0.51210  1.0000
  Fe  Fe139     1.0  0.97348  0.53943  0.89566  1.0000
  C   C1228     1.0  0.60047  0.51258  0.95536  1.0000
  C   C1229     1.0  0.51396  0.63342  0.96707  1.0000
  H   H2168     1.0  0.64888  0.54912  0.74789  1.0000
  Fe  Fe140     1.0  0.98021  0.54778  0.54506  1.0000
  C   C1230     1.0  0.70010  0.52633  0.81000  1.0000
  H   H2169     1.0  0.72901  0.50646  0.88478  1.0000
  H   H2170     1.0  0.70990  0.51870  0.67062  1.0000
  C   C1231     1.0  0.49335  0.50063  0.95443  1.0000
  H   H2171     1.0  0.60340  0.49429  0.80661  1.0000
  H   H2172     1.0  0.54042  0.63425  0.95680  1.0000
  H   H2173     1.0  0.87977  0.50507  0.93129  1.0000
  H   H2174     1.0  0.50242  0.60629  0.90239  1.0000
  C   C1232     1.0  0.61712  0.52289  0.85970  1.0000
  H   H2175     1.0  0.94299  0.51264  0.98372  1.0000
  H   H2176     1.0  0.59494  0.56406  0.92737  1.0000
  H   H2177     1.0  0.69651  0.55080  0.82430  1.0000
  H   H2178     1.0  0.90414  0.55466  0.51443  1.0000
  H   H2179     1.0  0.51963  0.56839  0.88819  1.0000
  H   H2180     1.0  0.64836  0.56500  0.89625  1.0000
  H   H2181     1.0  0.91942  0.51148  0.65483  1.0000
  H   H2182     1.0  0.59760  0.52238  0.81659  1.0000
  C   C1233     1.0  0.71681  0.51701  0.69538  1.0000
  C   C1234     1.0  0.52104  0.58187  0.89933  1.0000
  H   H2183     1.0  0.65788  0.56891  0.77876  1.0000
  S   S275      1.0  0.93326  0.56676  0.94675  1.0000
  C   C1235     1.0  0.65823  0.54590  0.87905  1.0000
  H   H2184     1.0  0.98206  0.53724  0.63467  1.0000
  H   H2185     1.0  0.54425  0.68539  0.49892  1.0000
  H   H2186     1.0  0.51183  0.59271  0.94429  1.0000
  H   H2187     1.0  0.67854  0.56602  0.91714  1.0000
  C   C1236     1.0  0.87465  0.52229  0.97014  1.0000
  C   C1237     1.0  0.51480  0.61865  0.51308  1.0000
  N   N68       1.0  0.48825  0.56836  0.92362  1.0000
  Fe  Fe141     1.0  0.63908  0.49562  0.93837  1.0000
  H   H2188     1.0  0.71870  0.49527  0.74978  1.0000
  H   H2189     1.0  0.57868  0.55289  0.49112  1.0000
  H   H2190     1.0  0.51925  0.73488  0.86753  1.0000
  S   S276      1.0  0.85231  0.50451  0.97876  1.0000
  H   H2191     1.0  0.66736  0.54279  0.93284  1.0000
  H   H2192     1.0  0.50984  0.50875  0.53271  1.0000
  H   H2193     1.0  0.97599  0.50890  0.62224  1.0000
  N   N69       1.0  0.97449  0.52677  0.68789  1.0000
  C   C1238     1.0  0.59347  0.53802  0.51136  1.0000
  H   H2194     1.0  0.57362  0.51015  0.93955  1.0000
  C   C1239     1.0  0.94855  0.52898  0.64775  1.0000
  H   H2195     1.0  0.58723  0.51332  0.85792  1.0000
  H   H2196     1.0  0.50151  0.63348  0.53971  1.0000
  C   C1240     1.0  0.61631  0.52199  0.97732  1.0000
  H   H2197     1.0  0.62500  0.53132  0.78860  1.0000
  H   H2198     1.0  0.49507  0.70644  0.85700  1.0000
  H   H2199     1.0  0.68028  0.53584  0.79004  1.0000
  C   C1241     1.0  0.52318  0.51973  0.52485  1.0000
  C   C1242     1.0  0.91069  0.54935  0.95501  1.0000
  C   C1243     1.0  0.89988  0.55327  0.97965  1.0000
  H   H2200     1.0  0.95486  0.53707  0.70274  1.0000
  H   H2201     1.0  0.61932  0.55547  0.81798  1.0000
  C   C1244     1.0  0.52998  0.53494  0.55445  1.0000
  S   S277      1.0  0.65122  0.50275  0.57128  1.0000
  H   H2202     1.0  0.51146  0.69805  0.78917  1.0000
  H   H2203     1.0  0.48757  0.53427  0.67876  1.0000
  S   S278      1.0  0.97358  0.55397  0.94745  1.0000
  H   H2204     1.0  0.72262  0.51752  0.76595  1.0000
  C   C1245     1.0  0.68844  0.50582  0.79805  1.0000
  H   H2205     1.0  0.48969  0.68825  0.98310  1.0000
  H   H2206     1.0  0.73839  0.50601  0.80563  1.0000
  S   S279      1.0  0.56774  0.53746  0.98049  1.0000
  H   H2207     1.0  0.51154  0.67200  0.96328  1.0000
  C   C1246     1.0  0.71152  0.50382  0.75727  1.0000
  H   H2208     1.0  0.48957  0.54912  0.88386  1.0000
  H   H2209     1.0  0.53331  0.70921  0.49191  1.0000
  C   C1247     1.0  0.50635  0.73864  0.81758  1.0000
  C   C1248     1.0  0.89537  0.54411  0.49491  1.0000
  H   H2210     1.0  0.50191  0.71647  0.75924  1.0000
  H   H2211     1.0  0.96812  0.50777  0.75519  1.0000
  H   H2212     1.0  0.72457  0.50905  0.68816  1.0000
  H   H2213     1.0  0.51852  0.74088  0.80175  1.0000
  S   S280      1.0  0.63586  0.51742  0.97425  1.0000
  C   C1249     1.0  0.98181  0.51094  0.51089  1.0000
  C   C1250     1.0  0.98457  0.58251  0.75463  1.0000
  C   C1251     1.0  0.52052  0.67874  0.98742  1.0000
  H   H2214     1.0  0.49286  0.55657  0.55106  1.0000
  H   H2215     1.0  0.49086  0.71984  0.69695  1.0000
  H   H2216     1.0  0.49193  0.54333  0.92823  1.0000
  C   C1252     1.0  0.48888  0.71555  0.76994  1.0000
  H   H2217     1.0  0.51379  0.74135  0.55607  1.0000
  H   H2218     1.0  0.48855  0.64996  0.73847  1.0000
  H   H2219     1.0  0.92910  0.49523  0.92640  1.0000
  N   N70       1.0  0.69884  0.49504  0.78724  1.0000
  H   H2220     1.0  0.49538  0.74269  0.74833  1.0000
  H   H2221     1.0  0.92500  0.51923  0.98427  1.0000
  C   C1253     1.0  0.48729  0.59805  0.90016  1.0000
  C   C1254     1.0  0.88203  0.53988  0.98719  1.0000
  H   H2222     1.0  0.98486  0.54805  0.73035  1.0000
  H   H2223     1.0  0.97974  0.54502  0.79609  1.0000
  H   H2224     1.0  0.69270  0.49344  0.70924  1.0000
  H   H2225     1.0  0.54552  0.94750  0.09751  1.0000
  H   H2226     1.0  0.51223  0.96507  0.04511  1.0000
  C   C1255     1.0  0.49941  0.88352  0.12237  1.0000
  H   H2227     1.0  0.53837  0.87812  0.14230  1.0000
  H   H2228     1.0  0.50935  0.76689  0.03939  1.0000
  H   H2229     1.0  0.54501  0.87289  0.04537  1.0000
  H   H2230     1.0  0.51721  0.92181  0.11522  1.0000
  H   H2231     1.0  0.51613  0.88599  0.25508  1.0000
  H   H2232     1.0  0.50078  0.86513  0.17788  1.0000
  H   H2233     1.0  0.49949  0.89319  0.03529  1.0000
  H   H2234     1.0  0.53061  0.91376  0.08957  1.0000
  Fe  Fe142     1.0  0.48767  0.84501  0.02482  1.0000
  H   H2235     1.0  0.54426  0.90943  0.15248  1.0000
  C   C1256     1.0  0.53282  0.88175  0.08820  1.0000
  C   C1257     1.0  0.51794  0.90956  0.46300  1.0000
  H   H2236     1.0  0.52730  0.75965  0.03381  1.0000
  H   H2237     1.0  0.54575  0.94611  0.14555  1.0000
  C   C1258     1.0  0.53985  0.86849  0.07238  1.0000
  C   C1259     1.0  0.52053  0.87574  0.24389  1.0000
  H   H2238     1.0  0.55937  0.93797  0.11908  1.0000
  H   H2239     1.0  0.52179  0.88141  0.06973  1.0000
  H   H2240     1.0  0.54586  0.75803  0.41657  1.0000
  S   S281      1.0  0.48832  0.82584  0.06801  1.0000
  S   S282      1.0  0.51094  0.86807  0.99636  1.0000
  H   H2241     1.0  0.53174  0.86990  0.19702  1.0000
  C   C1260     1.0  0.54616  0.93901  0.11996  1.0000
  C   C1261     1.0  0.52993  0.91985  0.11598  1.0000
  C   C1262     1.0  0.49051  0.96396  0.00800  1.0000
  H   H2242     1.0  0.52858  0.85425  0.06944  1.0000
  C   C1263     1.0  0.50833  0.90074  0.01452  1.0000
  C   C1264     1.0  0.52993  0.90761  0.14754  1.0000
  H   H2243     1.0  0.53903  0.89422  0.20708  1.0000
  N   N71       1.0  0.51687  0.88725  0.14364  1.0000
  C   C1265     1.0  0.52595  0.87644  0.12627  1.0000
  H   H2244     1.0  0.51640  0.86137  0.12537  1.0000
  H   H2245     1.0  0.51110  0.75677  0.99706  1.0000
  H   H2246     1.0  0.55126  0.86849  0.08951  1.0000
  H   H2247     1.0  0.54454  0.89574  0.08911  1.0000
  H   H2248     1.0  0.52697  0.91406  0.17172  1.0000
  H   H2249     1.0  0.50496  0.88752  0.19473  1.0000
  C   C1266     1.0  0.51276  0.75627  0.02653  1.0000
  H   H2250     1.0  0.49467  0.90492  0.15268  1.0000
  C   C1267     1.0  0.52711  0.88036  0.20592  1.0000
  C   C1268     1.0  0.50124  0.96979  0.04399  1.0000
  H   H2251     1.0  0.50236  0.88906  0.09539  1.0000
  H   H2252     1.0  0.50885  0.86173  0.24399  1.0000
  H   H2253     1.0  0.50896  0.92682  0.03139  1.0000
  C   C1269     1.0  0.53103  0.92807  0.47085  1.0000
  C   C1270     1.0  0.51142  0.87978  0.18035  1.0000
  H   H2254     1.0  0.50778  0.98509  0.04737  1.0000
  H   H2255     1.0  0.53186  0.87591  0.26153  1.0000
  H   H2256     1.0  0.52057  0.90124  0.44287  1.0000
  C   C1271     1.0  0.51354  0.91984  0.01183  1.0000
  C   C1272     1.0  0.50168  0.90181  0.48155  1.0000
  C   C1273     1.0  0.51507  0.89160  0.99103  1.0000
  H   H2257     1.0  0.54363  0.93372  0.45663  1.0000
  H   H2258     1.0  0.53177  0.76365  0.38576  1.0000
  S   S283      1.0  0.48970  0.83396  0.41832  1.0000
  C   C1274     1.0  0.53426  0.75214  0.39629  1.0000
  H   H2259     1.0  0.49190  0.96399  0.06628  1.0000
  H   H2260     1.0  0.49344  0.93938  0.99523  1.0000
  H   H2261     1.0  0.53810  0.74547  0.37376  1.0000
  H   H2262     1.0  0.51347  0.74575  0.43465  1.0000
  H   H2263     1.0  0.49113  0.86839  0.11721  1.0000
  H   H2264     1.0  0.53682  0.95118  0.62441  1.0000
  C   C1275     1.0  0.60517  0.96419  0.59835  1.0000
  H   H2265     1.0  0.60592  0.97319  0.57599  1.0000
  C   C1276     1.0  0.50147  0.94972  0.80101  1.0000
  C   C1277     1.0  0.60687  0.97400  0.63531  1.0000
  H   H2266     1.0  0.50208  0.74926  0.80839  1.0000
  C   C1278     1.0  0.56401  0.96437  0.60232  1.0000
  Fe  Fe143     1.0  0.54206  0.97808  0.94352  1.0000
  H   H2267     1.0  0.48827  0.75180  0.93125  1.0000
  C   C1279     1.0  0.49876  0.91300  0.50787  1.0000
  C   C1280     1.0  0.59341  0.98030  0.70993  1.0000
  C   C1281     1.0  0.50413  0.99176  0.72527  1.0000
  H   H2268     1.0  0.54658  0.93547  0.61257  1.0000
  H   H2269     1.0  0.62028  0.94885  0.61563  1.0000
  S   S284      1.0  0.54544  0.96240  0.50669  1.0000
  S   S285      1.0  0.53101  0.95424  0.98290  1.0000
  H   H2270     1.0  0.52190  0.97627  0.78730  1.0000
  H   H2271     1.0  0.50139  0.74576  0.51971  1.0000
  H   H2272     1.0  0.53963  0.92818  0.93895  1.0000
  C   C1282     1.0  0.52718  0.76375  0.86269  1.0000
  C   C1283     1.0  0.50769  0.96672  0.77833  1.0000
  H   H2273     1.0  0.53770  0.94493  0.57824  1.0000
  H   H2274     1.0  0.57144  0.96086  0.58138  1.0000
  H   H2275     1.0  0.48964  0.94708  0.93385  1.0000
  H   H2276     1.0  0.60414  0.96320  0.65517  1.0000
  H   H2277     1.0  0.59892  0.96993  0.70905  1.0000
  C   C1284     1.0  0.57454  0.96951  0.63936  1.0000
  H   H2278     1.0  0.49510  0.98128  0.50857  1.0000
  S   S286      1.0  0.52711  0.97635  0.89115  1.0000
  H   H2279     1.0  0.56652  0.97491  0.65561  1.0000
  S   S287      1.0  0.55843  0.98704  0.81425  1.0000
  C   C1285     1.0  0.49507  0.97653  0.78188  1.0000
  H   H2280     1.0  0.50902  0.93994  0.53526  1.0000
  C   C1286     1.0  0.52796  0.93933  0.49676  1.0000
  H   H2281     1.0  0.50274  0.95379  0.82982  1.0000
  H   H2282     1.0  0.53940  0.76627  0.84690  1.0000
  Fe  Fe144     1.0  0.54463  0.98757  0.53595  1.0000
  C   C1287     1.0  0.54514  0.94798  0.60474  1.0000
  H   H2283     1.0  0.61873  0.95082  0.56791  1.0000
  C   C1288     1.0  0.62057  0.95827  0.59424  1.0000
  H   H2284     1.0  0.56177  0.97621  0.59302  1.0000
  N   N72       1.0  0.59457  0.98341  0.64068  1.0000
  H   H2285     1.0  0.53167  0.76688  0.89142  1.0000
  C   C1289     1.0  0.60041  0.99160  0.74523  1.0000
  H   H2286     1.0  0.59202  0.95143  0.59582  1.0000
  H   H2287     1.0  0.63418  0.97053  0.59537  1.0000
  H   H2288     1.0  0.53177  0.89492  0.94547  1.0000
  S   S288      1.0  0.53073  0.98657  0.58782  1.0000
  H   H2289     1.0  0.54673  0.98443  0.68389  1.0000
  H   H2290     1.0  0.50754  0.96180  0.75030  1.0000
  H   H2291     1.0  0.57296  0.95652  0.65186  1.0000
  C   C1290     1.0  0.52473  0.92998  0.98436  1.0000
  C   C1291     1.0  0.52637  0.90173  0.96377  1.0000
  H   H2292     1.0  0.62152  0.98398  0.64082  1.0000
  C   C1292     1.0  0.55144  0.98592  0.74141  1.0000
  H   H2293     1.0  0.50024  0.97108  0.98692  1.0000
  C   C1293     1.0  0.53089  0.92067  0.96001  1.0000
  H   H2294     1.0  0.59485  0.98251  0.76807  1.0000
  H   H2295     1.0  0.54387  0.97116  0.74394  1.0000
  C   C1294     1.0  0.51159  0.93164  0.51503  1.0000
  H   H2296     1.0  0.57821  0.97285  0.71069  1.0000
  H   H2297     1.0  0.49133  0.98054  0.71269  1.0000
  H   H2298     1.0  0.51505  0.98705  0.72276  1.0000
  H   H2299     1.0  0.52127  0.77323  0.85437  1.0000
  H   H2300     1.0  0.51043  0.94272  0.79655  1.0000
  H   H2301     1.0  0.49382  0.97831  0.81116  1.0000
  H   H2302     1.0  0.59365  0.99192  0.58617  1.0000
  C   C1295     1.0  0.59929  0.99300  0.67748  1.0000
  C   C1296     1.0  0.51285  0.74364  0.85753  1.0000
  H   H2303     1.0  0.49699  0.99303  0.65170  1.0000
  H   H2304     1.0  0.48703  0.93982  0.79367  1.0000
