data_image0
_chemical_formula_structural       H2SFeHSFeCSFeS2C2HSFeSH2CHC6H4C3H2S2HC2NC8H19CH4C2HCH3SH3FeSH3C4SH5CHCH2CH2C3SHNHCH2C2H2CH2CH5CH2CFeS2FeCSHFeS2FeSCNHCH2SH5SC2H3CH2C6H3CHCNC8HCH17S2CH6CSCH2FeHCHCH2CH4FeC4H5CFeSCFeHSFeS2FeSHC2HNH2C6H4CHSH3CHCH2CH6NC8H18CHCHC2HCH5SH2CH7SHCH9CSHC3HCH7C3H2CHCHC2H3CHCSCH3FeH3SHFeCHCH3C2H2CH2CH3CHCHCS2H4C3HCH5C2H4CH2CSCH2CH2CH2CHCH3NCHFeCSCHFeH3CHCH4CH2CH2CH4SFeHCH2CH2CH5C2H3CH3CSC2H5SHFeHCHCH2CH3C3H3NC4HCHCHCHCFeHSH2SCFeHSH3SH4CHC6H6CHCNCHC3H2SH3C3HC4H4SH2C2H5CH9CH2CNFeCHCH4SH2CHSC2H3SH2SH4CHC2HCH2CH2NC2HSHCHFeH2CHCH4CHCH2CH3C2H2CHFeHCHCH10C2H2C2H5CH2C2H2CHSNHC2SHSC3H2C3H2SCHC3HC2HCH2CH2CH3CH3CH6C2NCH5CH14C2HFeCH2C2HFeH4SCHFeSFeSH3CH3C6H4CSCHCH2C2SCHCHCH3CH2NH2C2SH9NC2HCHCHC3HFeH4FeSFeS2H3FeS2C2HCFeSH3SC6H5C2H2SHCH3SCH2CSH3C2HNHCHFeHCH3CHCH2C3H2C4SH4C2H2C4NH4C2H2CNCHCHCH9CH5CH3CH4FeCH3SC2HCH2FeSH2CHFeS2FeSFeSHCHFeSHC2HC2H4CHC7H4CHCH4SCHCH3C2H2CH8C3FeCHCSCHCH10CH2CH3C3NHC3H3CH2SC4H3SH2NCH6CNSCHCH3SHCSH3CH2CHCSH2SFeSHCFeSHCHC3HC6H4CH2CFeSCNC7FeCHCH14CHCH3CHCH7C3HC2H5CNHC2H2CH2NH2C2H6CSH4CH4CH3C3H3CHCHCHCH2C2H2CHCH4SH3FeH3SH3
_chemical_formula_sum              "H768 S96 Fe48 C432 N24"
_cell_length_a       36.9492
_cell_length_b       36.8553
_cell_length_c       33.0405
_cell_angle_alpha    90.1708
_cell_angle_beta     89.9588
_cell_angle_gamma    119.971

_space_group_name_H-M_alt    "P 1"
_space_group_IT_number       1

loop_
  _space_group_symop_operation_xyz
  'x, y, z'

loop_
  _atom_site_type_symbol
  _atom_site_label
  _atom_site_symmetry_multiplicity
  _atom_site_fract_x
  _atom_site_fract_y
  _atom_site_fract_z
  _atom_site_occupancy
  H   H1        1.0  0.22525  0.28038  0.19809  1.0000
  H   H2        1.0  0.00139  0.37418  0.25247  1.0000
  S   S1        1.0  0.06542  0.30943  0.24569  1.0000
  Fe  Fe1       1.0  0.37610  0.35292  0.05979  1.0000
  H   H3        1.0  0.49021  0.35408  0.04572  1.0000
  S   S2        1.0  0.42938  0.41108  0.08999  1.0000
  Fe  Fe2       1.0  0.28346  0.29982  0.03644  1.0000
  C   C1        1.0  0.02477  0.42645  0.19034  1.0000
  S   S3        1.0  0.21439  0.28094  0.03686  1.0000
  Fe  Fe3       1.0  0.33112  0.25600  0.06795  1.0000
  S   S4        1.0  0.31151  0.19524  0.10439  1.0000
  S   S5        1.0  0.31870  0.30543  0.09397  1.0000
  C   C2        1.0  0.48664  0.00341  0.29974  1.0000
  C   C3        1.0  0.12934  0.43099  0.26011  1.0000
  H   H4        1.0  0.14991  0.33527  0.28287  1.0000
  S   S6        1.0  0.99834  0.27473  0.99830  1.0000
  Fe  Fe4       1.0  0.35010  0.04314  0.26118  1.0000
  S   S7        1.0  0.37960  0.10043  0.21867  1.0000
  H   H5        1.0  0.08071  0.44992  0.09935  1.0000
  H   H6        1.0  0.13947  0.44907  0.28890  1.0000
  C   C4        1.0  0.00978  0.19288  0.22870  1.0000
  H   H7        1.0  0.48550  0.05609  0.23650  1.0000
  C   C5        1.0  0.33141  0.17015  0.13683  1.0000
  C   C6        1.0  0.37408  0.18719  0.14513  1.0000
  C   C7        1.0  0.38801  0.16559  0.17038  1.0000
  C   C8        1.0  0.35968  0.12675  0.18804  1.0000
  C   C9        1.0  0.31702  0.10986  0.18000  1.0000
  C   C10       1.0  0.30312  0.13132  0.15454  1.0000
  H   H8        1.0  0.39633  0.21695  0.13198  1.0000
  H   H9        1.0  0.42101  0.17926  0.17647  1.0000
  H   H10       1.0  0.29471  0.08009  0.19311  1.0000
  H   H11       1.0  0.27008  0.11768  0.14846  1.0000
  C   C11       1.0  0.03313  0.30774  0.20537  1.0000
  C   C12       1.0  0.04756  0.31211  0.16535  1.0000
  C   C13       1.0  0.02143  0.30804  0.13258  1.0000
  H   H12       1.0  0.07892  0.31835  0.15952  1.0000
  H   H13       1.0  0.03251  0.31048  0.10181  1.0000
  S   S8        1.0  0.01674  0.37107  0.01937  1.0000
  S   S9        1.0  0.33955  0.35162  0.00465  1.0000
  H   H14       1.0  0.30287  0.40222  0.12064  1.0000
  C   C14       1.0  0.48932  0.14776  0.32118  1.0000
  C   C15       1.0  0.24768  0.35421  0.15133  1.0000
  N   N1        1.0  0.17681  0.29189  0.17542  1.0000
  C   C16       1.0  0.20026  0.32479  0.14359  1.0000
  C   C17       1.0  0.13069  0.26657  0.16486  1.0000
  C   C18       1.0  0.19496  0.26352  0.18158  1.0000
  C   C19       1.0  0.20229  0.24405  0.14307  1.0000
  C   C20       1.0  0.11861  0.26028  0.11931  1.0000
  C   C21       1.0  0.07196  0.22962  0.11350  1.0000
  C   C22       1.0  0.22300  0.21820  0.15338  1.0000
  C   C23       1.0  0.26938  0.38032  0.11384  1.0000
  H   H15       1.0  0.18593  0.34499  0.13990  1.0000
  H   H16       1.0  0.19732  0.31025  0.11345  1.0000
  H   H17       1.0  0.11609  0.23512  0.17931  1.0000
  H   H18       1.0  0.11350  0.28165  0.17768  1.0000
  H   H19       1.0  0.17439  0.23683  0.20155  1.0000
  H   H20       1.0  0.22337  0.26854  0.12162  1.0000
  H   H21       1.0  0.17227  0.22277  0.12795  1.0000
  H   H22       1.0  0.26352  0.33634  0.15910  1.0000
  H   H23       1.0  0.12536  0.29059  0.10568  1.0000
  H   H24       1.0  0.13605  0.24825  0.10202  1.0000
  H   H25       1.0  0.06413  0.22710  0.08077  1.0000
  H   H26       1.0  0.05298  0.24076  0.12975  1.0000
  H   H27       1.0  0.22790  0.20469  0.12517  1.0000
  H   H28       1.0  0.25406  0.23821  0.16762  1.0000
  H   H29       1.0  0.20303  0.19209  0.17410  1.0000
  H   H30       1.0  0.26771  0.35969  0.08846  1.0000
  H   H31       1.0  0.25463  0.39883  0.10430  1.0000
  H   H32       1.0  0.06573  0.39352  0.27837  1.0000
  H   H33       1.0  0.01364  0.39231  0.18712  1.0000
  C   C24       1.0  0.45282  0.04066  0.17881  1.0000
  H   H34       1.0  0.16709  0.26443  0.25908  1.0000
  H   H35       1.0  0.07345  0.39580  0.22459  1.0000
  H   H36       1.0  0.08828  0.44150  0.17205  1.0000
  H   H37       1.0  0.45330  0.11995  0.17364  1.0000
  C   C25       1.0  0.18071  0.31449  0.21487  1.0000
  C   C26       1.0  0.18787  0.30730  0.02108  1.0000
  H   H38       1.0  0.24220  0.36865  0.01659  1.0000
  C   C27       1.0  0.08289  0.41462  0.25283  1.0000
  H   H39       1.0  0.19418  0.33029  0.29855  1.0000
  H   H40       1.0  0.44172  0.06360  0.23381  1.0000
  H   H41       1.0  0.08787  0.28473  0.00070  1.0000
  S   S10       1.0  0.39137  0.04099  0.31089  1.0000
  H   H42       1.0  0.14825  0.45118  0.23465  1.0000
  H   H43       1.0  0.17046  0.33806  0.21062  1.0000
  H   H44       1.0  0.02299  0.48077  0.27527  1.0000
  Fe  Fe5       1.0  0.04653  0.31276  0.31064  1.0000
  S   S11       1.0  0.39081  0.30383  0.03749  1.0000
  H   H45       1.0  0.45573  0.13829  0.31862  1.0000
  H   H46       1.0  0.42804  0.04519  0.16467  1.0000
  H   H47       1.0  0.47428  0.02430  0.30310  1.0000
  C   C28       1.0  0.45202  0.47300  0.03174  1.0000
  C   C29       1.0  0.14421  0.28398  0.01676  1.0000
  C   C30       1.0  0.47018  0.06905  0.21695  1.0000
  C   C31       1.0  0.07299  0.45082  0.25087  1.0000
  S   S12       1.0  0.29586  0.02372  0.30331  1.0000
  H   H48       1.0  0.13494  0.40413  0.26246  1.0000
  H   H49       1.0  0.06373  0.19805  0.12476  1.0000
  H   H50       1.0  0.48991  0.11333  0.14509  1.0000
  H   H51       1.0  0.00842  0.16661  0.21091  1.0000
  H   H52       1.0  0.46528  0.17429  0.11993  1.0000
  C   C32       1.0  0.46383  0.45960  0.06621  1.0000
  H   H53       1.0  0.47703  0.04767  0.15567  1.0000
  C   C33       1.0  0.15579  0.28632  0.25123  1.0000
  H   H54       1.0  0.48253  0.09225  0.29330  1.0000
  H   H55       1.0  0.46241  0.13529  0.24485  1.0000
  C   C34       1.0  0.20862  0.35032  0.01326  1.0000
  H   H56       1.0  0.21387  0.33237  0.22490  1.0000
  H   H57       1.0  0.12187  0.26765  0.24448  1.0000
  C   C35       1.0  0.16095  0.31274  0.28888  1.0000
  C   C36       1.0  0.02246  0.47500  0.24204  1.0000
  C   C37       1.0  0.18569  0.36963  0.00113  1.0000
  S   S13       1.0  0.29321  0.24843  0.01158  1.0000
  H   H58       1.0  0.07674  0.46356  0.28225  1.0000
  N   N2        1.0  0.03032  0.43907  0.23453  1.0000
  H   H59       1.0  0.25264  0.37637  0.17639  1.0000
  C   C38       1.0  0.05254  0.43361  0.11880  1.0000
  H   H60       1.0  0.42102  0.45379  0.01934  1.0000
  H   H61       1.0  0.02831  0.44020  0.10701  1.0000
  C   C39       1.0  0.12138  0.30322  0.00443  1.0000
  C   C40       1.0  0.48704  0.12943  0.17221  1.0000
  H   H62       1.0  0.00436  0.48243  0.07086  1.0000
  H   H63       1.0  0.04064  0.39935  0.11670  1.0000
  C   C41       1.0  0.06376  0.44869  0.16259  1.0000
  H   H64       1.0  0.02775  0.22244  0.21143  1.0000
  H   H65       1.0  0.02655  0.19596  0.25753  1.0000
  C   C42       1.0  0.49420  0.13894  0.24544  1.0000
  H   H66       1.0  0.07759  0.48309  0.16307  1.0000
  H   H67       1.0  0.14204  0.29205  0.31411  1.0000
  H   H68       1.0  0.00470  0.40849  0.29184  1.0000
  H   H69       1.0  0.09814  0.47654  0.23320  1.0000
  H   H70       1.0  0.12792  0.25066  0.02262  1.0000
  C   C43       1.0  0.99846  0.40222  0.25887  1.0000
  H   H71       1.0  0.99961  0.43068  0.17664  1.0000
  H   H72       1.0  0.20187  0.40293  0.99517  1.0000
  C   C44       1.0  0.14205  0.34613  0.99631  1.0000
  Fe  Fe6       1.0  0.06766  0.30990  0.40120  1.0000
  S   S14       1.0  0.01856  0.32578  0.42118  1.0000
  S   S15       1.0  0.10145  0.28700  0.44441  1.0000
  Fe  Fe7       1.0  0.04132  0.37306  0.37031  1.0000
  C   C45       1.0  0.43976  0.05318  0.48427  1.0000
  S   S16       1.0  0.26697  0.27885  0.64816  1.0000
  H   H73       1.0  0.19624  0.19688  0.59630  1.0000
  Fe  Fe8       1.0  0.28918  0.34119  0.61749  1.0000
  S   S17       1.0  0.35183  0.34888  0.59914  1.0000
  S   S18       1.0  0.25323  0.36060  0.57321  1.0000
  Fe  Fe9       1.0  0.33053  0.28845  0.63308  1.0000
  S   S19       1.0  0.34417  0.23881  0.60872  1.0000
  C   C46       1.0  0.32850  0.19208  0.63621  1.0000
  N   N3        1.0  0.45076  0.05669  0.52873  1.0000
  H   H74       1.0  0.47053  0.01786  0.46371  1.0000
  C   C47       1.0  0.25410  0.27000  0.37317  1.0000
  H   H75       1.0  0.16661  0.37344  0.46640  1.0000
  H   H76       1.0  0.28493  0.29514  0.36219  1.0000
  S   S20       1.0  0.33592  0.04103  0.41428  1.0000
  H   H77       1.0  0.24262  0.01647  0.38563  1.0000
  H   H78       1.0  0.00835  0.20636  0.44696  1.0000
  H   H79       1.0  0.45539  0.09704  0.57874  1.0000
  H   H80       1.0  0.31311  0.05153  0.49445  1.0000
  H   H81       1.0  0.37479  0.12559  0.56065  1.0000
  S   S21       1.0  0.05815  0.44196  0.37058  1.0000
  C   C48       1.0  0.32215  0.00852  0.45734  1.0000
  C   C49       1.0  0.34774  0.16819  0.62819  1.0000
  H   H82       1.0  0.40490  0.02071  0.40877  1.0000
  H   H83       1.0  0.37245  0.17917  0.60595  1.0000
  H   H84       1.0  0.38031  0.06240  0.55207  1.0000
  C   C50       1.0  0.48264  0.47308  0.65028  1.0000
  H   H85       1.0  0.26524  0.23029  0.56357  1.0000
  H   H86       1.0  0.38228  0.24677  0.51762  1.0000
  C   C51       1.0  0.14361  0.30858  0.48034  1.0000
  C   C52       1.0  0.15010  0.28107  0.50489  1.0000
  C   C53       1.0  0.18287  0.29626  0.53367  1.0000
  C   C54       1.0  0.21040  0.33934  0.53799  1.0000
  C   C55       1.0  0.20406  0.36685  0.51332  1.0000
  C   C56       1.0  0.17092  0.35171  0.48487  1.0000
  H   H87       1.0  0.12912  0.24770  0.50207  1.0000
  H   H88       1.0  0.18625  0.27468  0.55306  1.0000
  H   H89       1.0  0.22489  0.40026  0.51630  1.0000
  C   C57       1.0  0.40626  0.09247  0.54085  1.0000
  H   H90       1.0  0.42174  0.28763  0.48660  1.0000
  C   C58       1.0  0.40558  0.12761  0.56480  1.0000
  N   N4        1.0  0.28573  0.27303  0.48701  1.0000
  C   C59       1.0  0.28447  0.26798  0.44156  1.0000
  C   C60       1.0  0.31957  0.26630  0.50524  1.0000
  C   C61       1.0  0.24414  0.23941  0.50332  1.0000
  C   C62       1.0  0.29143  0.31501  0.49941  1.0000
  C   C63       1.0  0.33077  0.35416  0.48310  1.0000
  C   C64       1.0  0.25055  0.27332  0.41897  1.0000
  C   C65       1.0  0.24056  0.23525  0.55013  1.0000
  C   C66       1.0  0.35982  0.28009  0.48000  1.0000
  H   H91       1.0  0.47317  0.12346  0.53155  1.0000
  C   C67       1.0  0.33041  0.39431  0.49403  1.0000
  H   H92       1.0  0.43037  0.15871  0.55396  1.0000
  H   H93       1.0  0.27969  0.23643  0.43371  1.0000
  H   H94       1.0  0.31477  0.29056  0.42765  1.0000
  H   H95       1.0  0.32900  0.28174  0.53547  1.0000
  H   H96       1.0  0.30744  0.23236  0.51124  1.0000
  H   H97       1.0  0.23647  0.20824  0.49078  1.0000
  H   H98       1.0  0.21850  0.24502  0.49362  1.0000
  H   H99       1.0  0.26349  0.31737  0.49112  1.0000
  H   H100      1.0  0.29317  0.31822  0.53282  1.0000
  H   H101      1.0  0.33298  0.35332  0.44972  1.0000
  H   H102      1.0  0.35919  0.35669  0.49714  1.0000
  H   H103      1.0  0.21867  0.24862  0.42776  1.0000
  H   H104      1.0  0.25381  0.30439  0.42535  1.0000
  H   H105      1.0  0.24299  0.26386  0.56375  1.0000
  H   H106      1.0  0.41645  0.02547  0.58328  1.0000
  H   H107      1.0  0.35277  0.25832  0.45400  1.0000
  H   H108      1.0  0.37297  0.31210  0.46778  1.0000
  S   S22       1.0  0.09351  0.36051  0.35361  1.0000
  S   S23       1.0  0.35114  0.02459  0.63957  1.0000
  C   C68       1.0  0.44868  0.09381  0.54564  1.0000
  H   H109      1.0  0.30170  0.39331  0.48239  1.0000
  H   H110      1.0  0.33193  0.39871  0.52739  1.0000
  H   H111      1.0  0.35804  0.42173  0.48057  1.0000
  H   H112      1.0  0.22927  0.27351  0.35783  1.0000
  H   H113      1.0  0.35094  0.11266  0.64307  1.0000
  H   H114      1.0  0.25014  0.23897  0.36487  1.0000
  C   C69       1.0  0.02614  0.46471  0.36213  1.0000
  S   S24       1.0  0.02444  0.26063  0.35606  1.0000
  C   C70       1.0  0.31268  0.02196  0.49358  1.0000
  H   H115      1.0  0.45182  0.45531  0.59245  1.0000
  H   H116      1.0  0.40748  0.04741  0.48013  1.0000
  Fe  Fe10      1.0  0.33478  0.01601  0.35111  1.0000
  H   H117      1.0  0.40035  0.09658  0.50871  1.0000
  C   C71       1.0  0.19851  0.19815  0.56275  1.0000
  H   H118      1.0  0.19558  0.16830  0.55171  1.0000
  C   C72       1.0  0.39368  0.27878  0.50548  1.0000
  H   H119      1.0  0.17228  0.20144  0.55056  1.0000
  H   H120      1.0  0.38829  0.00485  0.53792  1.0000
  C   C73       1.0  0.44062  0.01759  0.46001  1.0000
  H   H121      1.0  0.46097  0.05125  0.40261  1.0000
  H   H122      1.0  0.46062  0.08345  0.46879  1.0000
  H   H123      1.0  0.40287  0.30115  0.53125  1.0000
  H   H124      1.0  0.41015  0.12463  0.59760  1.0000
  Fe  Fe11      1.0  0.37647  0.38129  0.65899  1.0000
  C   C74       1.0  0.33551  0.13047  0.64903  1.0000
  C   C75       1.0  0.48037  0.47638  0.60830  1.0000
  C   C76       1.0  0.41997  0.01776  0.55138  1.0000
  C   C77       1.0  0.43489  0.02155  0.41467  1.0000
  H   H125      1.0  0.29471  0.00778  0.55637  1.0000
  H   H126      1.0  0.49072  0.05905  0.59973  1.0000
  H   H127      1.0  0.21212  0.99955  0.33969  1.0000
  H   H128      1.0  0.18733  0.99948  0.38657  1.0000
  H   H129      1.0  0.49459  0.13830  0.35151  1.0000
  C   C78       1.0  0.49531  0.06613  0.53305  1.0000
  Fe  Fe12      1.0  0.04396  0.34079  0.97972  1.0000
  S   S25       1.0  0.11493  0.37108  0.97805  1.0000
  C   C79       1.0  0.44859  0.44497  0.89584  1.0000
  Fe  Fe13      1.0  0.29856  0.31615  0.70446  1.0000
  H   H130      1.0  0.22881  0.39952  0.81302  1.0000
  S   S26       1.0  0.26899  0.29538  0.76676  1.0000
  Fe  Fe14      1.0  0.35143  0.30036  0.98384  1.0000
  S   S27       1.0  0.37672  0.30386  0.92031  1.0000
  S   S28       1.0  0.31565  0.37794  0.67572  1.0000
  Fe  Fe15      1.0  0.31049  0.02384  0.69051  1.0000
  S   S29       1.0  0.28891  0.07028  0.70661  1.0000
  H   H131      1.0  0.22887  0.38586  0.74019  1.0000
  C   C80       1.0  0.09951  0.35086  0.86737  1.0000
  C   C81       1.0  0.28394  0.13973  0.68540  1.0000
  H   H132      1.0  0.41926  0.25798  0.89674  1.0000
  N   N5        1.0  0.37707  0.20982  0.77929  1.0000
  H   H133      1.0  0.25855  0.12844  0.70688  1.0000
  H   H134      1.0  0.42975  0.17418  0.76085  1.0000
  C   C82       1.0  0.34662  0.30239  0.87815  1.0000
  C   C83       1.0  0.30367  0.28702  0.88143  1.0000
  C   C84       1.0  0.28035  0.28501  0.84698  1.0000
  C   C85       1.0  0.29986  0.29957  0.80934  1.0000
  C   C86       1.0  0.34299  0.31586  0.80632  1.0000
  C   C87       1.0  0.36610  0.31647  0.84039  1.0000
  H   H135      1.0  0.28834  0.27575  0.91032  1.0000
  H   H136      1.0  0.24691  0.27133  0.84919  1.0000
  H   H137      1.0  0.35850  0.32754  0.77768  1.0000
  H   H138      1.0  0.39922  0.32826  0.83742  1.0000
  C   C88       1.0  0.40634  0.23405  0.74503  1.0000
  H   H139      1.0  0.40545  0.26197  0.82114  1.0000
  S   S30       1.0  0.45278  0.03682  0.68143  1.0000
  H   H140      1.0  0.47008  0.35414  0.91546  1.0000
  H   H141      1.0  0.28726  0.14760  0.77189  1.0000
  H   H142      1.0  0.27569  0.02889  0.80569  1.0000
  C   C89       1.0  0.39879  0.22909  0.81871  1.0000
  H   H143      1.0  0.15712  0.38783  0.89935  1.0000
  C   C90       1.0  0.20917  0.07763  0.86044  1.0000
  H   H144      1.0  0.16246  0.38637  0.84579  1.0000
  H   H145      1.0  0.28123  0.19564  0.67119  1.0000
  C   C91       1.0  0.33802  0.21321  0.77451  1.0000
  H   H146      1.0  0.43571  0.23289  0.74663  1.0000
  H   H147      1.0  0.42999  0.23139  0.81961  1.0000
  H   H148      1.0  0.45904  0.37636  0.87268  1.0000
  H   H149      1.0  0.45619  0.44312  0.96006  1.0000
  H   H150      1.0  0.21410  0.33216  0.74988  1.0000
  H   H151      1.0  0.38435  0.21023  0.92270  1.0000
  N   N6        1.0  0.19969  0.33985  0.87683  1.0000
  C   C92       1.0  0.22822  0.38265  0.89466  1.0000
  C   C93       1.0  0.15473  0.33007  0.87852  1.0000
  C   C94       1.0  0.20341  0.30819  0.90290  1.0000
  C   C95       1.0  0.21220  0.33606  0.83419  1.0000
  C   C96       1.0  0.27522  0.39614  0.89783  1.0000
  C   C97       1.0  0.17130  0.26128  0.89465  1.0000
  C   C98       1.0  0.30034  0.44035  0.91540  1.0000
  C   C99       1.0  0.17827  0.23295  0.92347  1.0000
  H   H152      1.0  0.21736  0.38433  0.92563  1.0000
  H   H153      1.0  0.22653  0.40754  0.87754  1.0000
  H   H154      1.0  0.13541  0.30489  0.85634  1.0000
  H   H155      1.0  0.14103  0.31734  0.90890  1.0000
  H   H156      1.0  0.20039  0.31418  0.93544  1.0000
  H   H157      1.0  0.23484  0.31147  0.89969  1.0000
  H   H158      1.0  0.24377  0.33929  0.83385  1.0000
  H   H159      1.0  0.19127  0.30415  0.82191  1.0000
  H   H160      1.0  0.28013  0.37514  0.91827  1.0000
  H   H161      1.0  0.28843  0.39620  0.86765  1.0000
  H   H162      1.0  0.17411  0.25213  0.86333  1.0000
  H   H163      1.0  0.13874  0.25443  0.89924  1.0000
  H   H164      1.0  0.26436  0.37426  0.76680  1.0000
  H   H165      1.0  0.28898  0.44159  0.94626  1.0000
  H   H166      1.0  0.33379  0.44942  0.91761  1.0000
  H   H167      1.0  0.29777  0.46331  0.89567  1.0000
  H   H168      1.0  0.17398  0.23961  0.95539  1.0000
  H   H169      1.0  0.36065  0.17304  0.85657  1.0000
  C   C100      1.0  0.14623  0.36695  0.87239  1.0000
  H   H170      1.0  0.09388  0.37773  0.86576  1.0000
  C   C101      1.0  0.29662  0.17777  0.66508  1.0000
  H   H171      1.0  0.47033  0.29691  0.69908  1.0000
  C   C102      1.0  0.40097  0.42379  0.89450  1.0000
  C   C103      1.0  0.37450  0.20748  0.85772  1.0000
  H   H172      1.0  0.02100  0.29915  0.79582  1.0000
  C   C104      1.0  0.36686  0.16484  0.77509  1.0000
  H   H173      1.0  0.45259  0.33440  0.70248  1.0000
  H   H174      1.0  0.26566  0.21154  0.80687  1.0000
  H   H175      1.0  0.36266  0.08964  0.79477  1.0000
  H   H176      1.0  0.44319  0.29868  0.76778  1.0000
  H   H177      1.0  0.21021  0.23763  0.91987  1.0000
  S   S31       1.0  0.36006  0.32123  0.69098  1.0000
  H   H178      1.0  0.22580  0.10012  0.83562  1.0000
  H   H179      1.0  0.41508  0.16368  0.81339  1.0000
  C   C105      1.0  0.21133  0.36657  0.80259  1.0000
  H   H180      1.0  0.42069  0.28511  0.67715  1.0000
  H   H181      1.0  0.23036  0.15783  0.79367  1.0000
  H   H182      1.0  0.39396  0.28696  0.74636  1.0000
  H   H183      1.0  0.45976  0.43841  0.86706  1.0000
  H   H184      1.0  0.46084  0.47927  0.89790  1.0000
  H   H185      1.0  0.34226  0.14406  0.79665  1.0000
  H   H186      1.0  0.08771  0.33212  0.83915  1.0000
  S   S32       1.0  0.00628  0.33882  0.92515  1.0000
  H   H187      1.0  0.37872  0.10147  0.74242  1.0000
  C   C106      1.0  0.23086  0.36445  0.76252  1.0000
  H   H188      1.0  0.35347  0.15287  0.74453  1.0000
  H   H189      1.0  0.17848  0.35766  0.79593  1.0000
  H   H190      1.0  0.39115  0.43597  0.86855  1.0000
  H   H191      1.0  0.41514  0.10393  0.78002  1.0000
  H   H192      1.0  0.29807  0.16896  0.82210  1.0000
  H   H193      1.0  0.21549  0.03952  0.79047  1.0000
  H   H194      1.0  0.15532  0.19964  0.91686  1.0000
  H   H195      1.0  0.16393  0.01506  0.80957  1.0000
  H   H196      1.0  0.25853  0.19528  0.75442  1.0000
  C   C107      1.0  0.42058  0.28141  0.74312  1.0000
  S   S33       1.0  0.43954  0.43600  0.67948  1.0000
  H   H197      1.0  0.42691  0.21326  0.89322  1.0000
  C   C108      1.0  0.38896  0.10993  0.77437  1.0000
  C   C109      1.0  0.21284  0.03838  0.85521  1.0000
  C   C110      1.0  0.26060  0.18590  0.78591  1.0000
  H   H198      1.0  0.17585  0.06939  0.86052  1.0000
  C   C111      1.0  0.40315  0.22328  0.89474  1.0000
  H   H199      1.0  0.34925  0.21508  0.86253  1.0000
  H   H200      1.0  0.38893  0.43002  0.92295  1.0000
  H   H201      1.0  0.33235  0.21680  0.74198  1.0000
  H   H202      1.0  0.39162  0.21945  0.71538  1.0000
  H   H203      1.0  0.44261  0.39575  0.93598  1.0000
  H   H204      1.0  0.08186  0.33111  0.89361  1.0000
  H   H205      1.0  0.46143  0.37757  0.99161  1.0000
  C   C112      1.0  0.19467  0.01680  0.81381  1.0000
  C   C113      1.0  0.40340  0.15611  0.78180  1.0000
  C   C114      1.0  0.02360  0.48531  0.95898  1.0000
  H   H206      1.0  0.38694  0.38948  0.89069  1.0000
  H   H207      1.0  0.34221  0.24210  0.78952  1.0000
  C   C115      1.0  0.29611  0.17622  0.79000  1.0000
  H   H208      1.0  0.22347  0.09312  0.88968  1.0000
  C   C116      1.0  0.30351  0.11607  0.67776  1.0000
  H   H209      1.0  0.03986  0.46820  0.96449  1.0000
  C   C117      1.0  0.46338  0.43010  0.93296  1.0000
  C   C118      1.0  0.44240  0.30046  0.70299  1.0000
  H   H210      1.0  0.19696  0.01746  0.88110  1.0000
  H   H211      1.0  0.24652  0.04834  0.85724  1.0000
  H   H212      1.0  0.47471  0.32193  0.85199  1.0000
  C   C119      1.0  0.48650  0.01638  0.69146  1.0000
  H   H213      1.0  0.99783  0.34683  0.82421  1.0000
  C   C120      1.0  0.48432  0.37467  0.88899  1.0000
  S   S34       1.0  0.34464  0.00775  0.73697  1.0000
  C   C121      1.0  0.49548  0.38918  0.99121  1.0000
  H   H214      1.0  0.33255  0.01621  0.82867  1.0000
  H   H215      1.0  0.29995  0.01296  0.87069  1.0000
  H   H216      1.0  0.99872  0.28393  0.84560  1.0000
  Fe  Fe16      1.0  0.38146  0.00265  0.68521  1.0000
  H   H217      1.0  0.01290  0.46812  0.82070  1.0000
  H   H218      1.0  0.01063  0.43736  0.86399  1.0000
  H   H219      1.0  0.01337  0.54409  0.23873  1.0000
  S   S35       1.0  0.06752  0.75267  0.06425  1.0000
  H   H220      1.0  0.06446  0.84456  0.21582  1.0000
  Fe  Fe17      1.0  0.27665  0.95721  0.28652  1.0000
  C   C122      1.0  0.03184  0.72498  0.10338  1.0000
  H   H221      1.0  0.03324  0.57726  0.06448  1.0000
  C   C123      1.0  0.10679  0.80589  0.31021  1.0000
  H   H222      1.0  0.17922  0.90712  0.18442  1.0000
  H   H223      1.0  0.10863  0.79686  0.18359  1.0000
  H   H224      1.0  0.08272  0.64912  0.08998  1.0000
  C   C124      1.0  0.18929  0.89433  0.15883  1.0000
  C   C125      1.0  0.47570  0.93365  0.29024  1.0000
  H   H225      1.0  0.05803  0.55891  0.27088  1.0000
  H   H226      1.0  0.02986  0.69841  0.20283  1.0000
  C   C126      1.0  0.04645  0.72143  0.14155  1.0000
  H   H227      1.0  0.41985  0.97474  0.16229  1.0000
  H   H228      1.0  0.07946  0.73404  0.14638  1.0000
  C   C127      1.0  0.19412  0.84274  0.31192  1.0000
  H   H229      1.0  0.21313  0.79529  0.24897  1.0000
  H   H230      1.0  0.16536  0.76836  0.16805  1.0000
  H   H231      1.0  0.22477  0.84536  0.17561  1.0000
  C   C128      1.0  0.48022  0.51145  0.01339  1.0000
  H   H232      1.0  0.08590  0.82760  0.13046  1.0000
  C   C129      1.0  0.06424  0.64394  0.06190  1.0000
  H   H233      1.0  0.08352  0.64507  0.03561  1.0000
  C   C130      1.0  0.12614  0.83151  0.18150  1.0000
  S   S36       1.0  0.20728  0.91489  0.27311  1.0000
  S   S37       1.0  0.40430  0.93988  0.28813  1.0000
  H   H234      1.0  0.24859  0.91679  0.19142  1.0000
  H   H235      1.0  0.18918  0.74388  0.22651  1.0000
  H   H236      1.0  0.17933  0.90376  0.13085  1.0000
  H   H237      1.0  0.04469  0.51491  0.18849  1.0000
  C   C131      1.0  0.23779  0.91950  0.16078  1.0000
  C   C132      1.0  0.20422  0.77788  0.21979  1.0000
  C   C133      1.0  0.09599  0.84337  0.16035  1.0000
  H   H238      1.0  0.14534  0.77508  0.21573  1.0000
  C   C134      1.0  0.04671  0.55250  0.23908  1.0000
  H   H239      1.0  0.01640  0.60108  0.12684  1.0000
  H   H240      1.0  0.19858  0.85002  0.21808  1.0000
  H   H241      1.0  0.21504  0.81689  0.03848  1.0000
  H   H242      1.0  0.21782  0.86904  0.08693  1.0000
  H   H243      1.0  0.14363  0.83870  0.10060  1.0000
  C   C135      1.0  0.05222  0.51719  0.22126  1.0000
  C   C136      1.0  0.19953  0.83555  0.09545  1.0000
  H   H244      1.0  0.40876  0.78981  0.21092  1.0000
  H   H245      1.0  0.25229  0.90818  0.13855  1.0000
  H   H246      1.0  0.13938  0.79301  0.12186  1.0000
  H   H247      1.0  0.16702  0.81841  0.03725  1.0000
  C   C137      1.0  0.25451  0.96612  0.15312  1.0000
  H   H248      1.0  0.23281  0.78712  0.20161  1.0000
  H   H249      1.0  0.08555  0.52666  0.22496  1.0000
  C   C138      1.0  0.17626  0.86498  0.29533  1.0000
  S   S38       1.0  0.01138  0.64210  0.28730  1.0000
  C   C139      1.0  0.17368  0.78671  0.19658  1.0000
  H   H250      1.0  0.47300  0.78095  0.19404  1.0000
  H   H251      1.0  0.03551  0.83806  0.16986  1.0000
  C   C140      1.0  0.01834  0.70078  0.17342  1.0000
  H   H252      1.0  0.22773  0.85646  0.31214  1.0000
  H   H253      1.0  0.16889  0.77603  0.06266  1.0000
  C   C141      1.0  0.16058  0.82742  0.11999  1.0000
  H   H254      1.0  0.11074  0.87768  0.15588  1.0000
  H   H255      1.0  0.05704  0.66958  0.05855  1.0000
  C   C142      1.0  0.05653  0.82924  0.18558  1.0000
  H   H256      1.0  0.21960  0.82650  0.11250  1.0000
  C   C143      1.0  0.18676  0.81015  0.05609  1.0000
  H   H257      1.0  0.03966  0.79467  0.18951  1.0000
  H   H258      1.0  0.13073  0.84327  0.21318  1.0000
  H   H259      1.0  0.07316  0.79199  0.30963  1.0000
  N   N7        1.0  0.16811  0.84698  0.16154  1.0000
  C   C144      1.0  0.19313  0.83426  0.18813  1.0000
  H   H260      1.0  0.11842  0.86344  0.28189  1.0000
  Fe  Fe18      1.0  0.04290  0.72731  0.00158  1.0000
  C   C145      1.0  0.45918  0.96070  0.29337  1.0000
  S   S39       1.0  0.32868  0.97685  0.24097  1.0000
  C   C146      1.0  0.13252  0.84641  0.29463  1.0000
  H   H261      1.0  0.49123  0.85469  0.25085  1.0000
  Fe  Fe19      1.0  0.36661  0.97377  0.29326  1.0000
  H   H262      1.0  0.45742  0.98788  0.20251  1.0000
  H   H263      1.0  0.06508  0.58163  0.22130  1.0000
  H   H264      1.0  0.28916  0.98343  0.15510  1.0000
  C   C147      1.0  0.02393  0.60157  0.06293  1.0000
  H   H265      1.0  0.45471  0.90052  0.28558  1.0000
  C   C148      1.0  0.43040  0.82087  0.22452  1.0000
  H   H266      1.0  0.41500  0.82536  0.25145  1.0000
  H   H267      1.0  0.43645  0.84592  0.20237  1.0000
  H   H268      1.0  0.24538  0.97111  0.12252  1.0000
  H   H269      1.0  0.00709  0.59787  0.03416  1.0000
  C   C149      1.0  0.47136  0.82334  0.23724  1.0000
  H   H270      1.0  0.46344  0.79899  0.26066  1.0000
  H   H271      1.0  0.40818  0.98546  0.21232  1.0000
  C   C150      1.0  0.43343  0.99440  0.18974  1.0000
  H   H272      1.0  0.24236  0.97925  0.17629  1.0000
  H   H273      1.0  0.48935  0.83092  0.17382  1.0000
  C   C151      1.0  0.49266  0.81488  0.20091  1.0000
  H   H274      1.0  0.20028  0.82352  0.44160  1.0000
  H   H275      1.0  0.07853  0.52770  0.36370  1.0000
  H   H276      1.0  0.43438  0.99502  0.39806  1.0000
  H   H277      1.0  0.38096  0.94594  0.59825  1.0000
  S   S40       1.0  0.28625  0.92613  0.57072  1.0000
  Fe  Fe20      1.0  0.02534  0.69009  0.33639  1.0000
  H   H278      1.0  0.14666  0.90733  0.57121  1.0000
  C   C152      1.0  0.31152  0.94576  0.49175  1.0000
  H   H279      1.0  0.24602  0.83499  0.38120  1.0000
  H   H280      1.0  0.31142  0.91637  0.49101  1.0000
  C   C153      1.0  0.32184  0.97044  0.45662  1.0000
  H   H281      1.0  0.26580  0.82427  0.42667  1.0000
  H   H282      1.0  0.16202  0.86874  0.56147  1.0000
  C   C154      1.0  0.12469  0.78395  0.32750  1.0000
  H   H283      1.0  0.16774  0.93593  0.50277  1.0000
  H   H284      1.0  0.32982  0.96011  0.42908  1.0000
  H   H285      1.0  0.44038  0.97503  0.52535  1.0000
  H   H286      1.0  0.45543  0.98998  0.57682  1.0000
  H   H287      1.0  0.39993  0.91603  0.57159  1.0000
  C   C155      1.0  0.19816  0.93923  0.42611  1.0000
  C   C156      1.0  0.46136  0.90326  0.61723  1.0000
  H   H288      1.0  0.46403  0.93311  0.60688  1.0000
  H   H289      1.0  0.12862  0.88101  0.50112  1.0000
  H   H290      1.0  0.24362  0.86555  0.46719  1.0000
  C   C157      1.0  0.30170  0.95905  0.52791  1.0000
  H   H291      1.0  0.41437  0.98683  0.46978  1.0000
  H   H292      1.0  0.06108  0.80655  0.44569  1.0000
  H   H293      1.0  0.17190  0.92802  0.36411  1.0000
  C   C158      1.0  0.16828  0.90066  0.55358  1.0000
  S   S41       1.0  0.09395  0.73452  0.35068  1.0000
  C   C159      1.0  0.07771  0.79471  0.42655  1.0000
  C   C160      1.0  0.25934  0.84733  0.41157  1.0000
  H   H294      1.0  0.22839  0.96270  0.44028  1.0000
  H   H295      1.0  0.25015  0.91593  0.41523  1.0000
  H   H296      1.0  0.13893  0.80405  0.41700  1.0000
  H   H297      1.0  0.28935  0.87716  0.40802  1.0000
  H   H298      1.0  0.17416  0.94627  0.43793  1.0000
  S   S42       1.0  0.31226  0.94851  0.33697  1.0000
  H   H299      1.0  0.12877  0.81508  0.46776  1.0000
  Fe  Fe21      1.0  0.30421  0.95637  0.63289  1.0000
  H   H300      1.0  0.14273  0.86514  0.38920  1.0000
  C   C161      1.0  0.22876  0.85418  0.43716  1.0000
  H   H301      1.0  0.20998  0.87680  0.38530  1.0000
  C   C162      1.0  0.12466  0.81897  0.43520  1.0000
  H   H302      1.0  0.18654  0.86371  0.49349  1.0000
  H   H303      1.0  0.12227  0.87662  0.43253  1.0000
  C   C163      1.0  0.20160  0.94893  0.38005  1.0000
  H   H304      1.0  0.20087  0.92386  0.56244  1.0000
  H   H305      1.0  0.22405  0.91744  0.49225  1.0000
  H   H306      1.0  0.06510  0.76098  0.43333  1.0000
  C   C164      1.0  0.14393  0.86548  0.42285  1.0000
  C   C165      1.0  0.16176  0.90374  0.50828  1.0000
  C   C166      1.0  0.02116  0.52811  0.35224  1.0000
  H   H307      1.0  0.22682  0.94535  0.36573  1.0000
  H   H308      1.0  0.44854  0.89707  0.64843  1.0000
  H   H309      1.0  0.36630  0.93053  0.54610  1.0000
  N   N8        1.0  0.18769  0.89531  0.43754  1.0000
  C   C167      1.0  0.19154  0.89440  0.48297  1.0000
  C   C168      1.0  0.21929  0.88662  0.41714  1.0000
  C   C169      1.0  0.39198  0.94117  0.56852  1.0000
  C   C170      1.0  0.43007  0.98169  0.55443  1.0000
  H   H310      1.0  0.07145  0.79746  0.39415  1.0000
  C   C171      1.0  0.21153  0.99391  0.37275  1.0000
  H   H311      1.0  0.43919  0.87708  0.59751  1.0000
  C   C172      1.0  0.04508  0.50861  0.35968  1.0000
  H   H312      1.0  0.03622  0.56189  0.35070  1.0000
  C   C173      1.0  0.16843  0.80263  0.32840  1.0000
  H   H313      1.0  0.18244  0.78576  0.34166  1.0000
  C   C174      1.0  0.30249  0.99735  0.52875  1.0000
  Fe  Fe22      1.0  0.05594  0.74048  0.90956  1.0000
  H   H314      1.0  0.09811  0.86839  0.86713  1.0000
  S   S43       1.0  0.08507  0.78094  0.85276  1.0000
  H   H315      1.0  0.07388  0.61305  0.79971  1.0000
  H   H316      1.0  0.17602  0.76247  0.93669  1.0000
  S   S44       1.0  0.08566  0.72082  0.95748  1.0000
  C   C175      1.0  0.16248  0.74288  0.77306  1.0000
  Fe  Fe23      1.0  0.29609  0.94031  0.72461  1.0000
  H   H317      1.0  0.18848  0.74751  0.84721  1.0000
  S   S45       1.0  0.26890  0.89783  0.78050  1.0000
  H   H318      1.0  0.19197  0.69132  0.81598  1.0000
  H   H319      1.0  0.12252  0.94245  0.80491  1.0000
  H   H320      1.0  0.20489  0.73917  0.95692  1.0000
  S   S46       1.0  0.26044  0.95668  0.68030  1.0000
  H   H321      1.0  0.29476  0.96568  0.84809  1.0000
  H   H322      1.0  0.14960  0.65692  0.78494  1.0000
  H   H323      1.0  0.17759  0.77197  0.79141  1.0000
  H   H324      1.0  0.19480  0.93912  0.75606  1.0000
  C   C176      1.0  0.12410  0.70782  0.79573  1.0000
  H   H325      1.0  0.09735  0.64150  0.87664  1.0000
  C   C177      1.0  0.13661  0.81462  0.83406  1.0000
  C   C178      1.0  0.17249  0.82548  0.85693  1.0000
  C   C179      1.0  0.21254  0.85083  0.83996  1.0000
  C   C180      1.0  0.21742  0.86623  0.80015  1.0000
  C   C181      1.0  0.18154  0.85613  0.77759  1.0000
  C   C182      1.0  0.14149  0.83055  0.79448  1.0000
  H   H326      1.0  0.16944  0.81426  0.88764  1.0000
  H   H327      1.0  0.24003  0.85866  0.85785  1.0000
  H   H328      1.0  0.18464  0.86733  0.74685  1.0000
  H   H329      1.0  0.11403  0.82249  0.77647  1.0000
  H   H330      1.0  0.10557  0.68353  0.77262  1.0000
  H   H331      1.0  0.10418  0.72119  0.80541  1.0000
  C   C183      1.0  0.14777  0.93944  0.81999  1.0000
  H   H332      1.0  0.12089  0.60165  0.83514  1.0000
  C   C184      1.0  0.05941  0.62439  0.82213  1.0000
  N   N9        1.0  0.13363  0.68836  0.83145  1.0000
  C   C185      1.0  0.15890  0.72318  0.86120  1.0000
  H   H333      1.0  0.17892  0.58832  0.84453  1.0000
  C   C186      1.0  0.13755  0.93644  0.86572  1.0000
  C   C187      1.0  0.09615  0.89671  0.87492  1.0000
  C   C188      1.0  0.15232  0.62904  0.84082  1.0000
  H   H334      1.0  0.08902  0.89549  0.90772  1.0000
  H   H335      1.0  0.18169  0.60964  0.79483  1.0000
  S   S47       1.0  0.05491  0.60769  0.95112  1.0000
  H   H336      1.0  0.19423  0.69925  0.89384  1.0000
  H   H337      1.0  0.12529  0.76260  0.73801  1.0000
  H   H338      1.0  0.14365  0.90859  0.81020  1.0000
  C   C189      1.0  0.15942  0.96779  0.73471  1.0000
  C   C190      1.0  0.02506  0.55222  0.95212  1.0000
  C   C191      1.0  0.19593  0.74885  0.92858  1.0000
  H   H339      1.0  0.17718  0.78072  0.71882  1.0000
  C   C192      1.0  0.22341  0.96895  0.82827  1.0000
  C   C193      1.0  0.14960  0.75374  0.73296  1.0000
  C   C194      1.0  0.09260  0.65786  0.85092  1.0000
  C   C195      1.0  0.15796  0.66782  0.81685  1.0000
  H   H340      1.0  0.07886  0.54605  0.96540  1.0000
  H   H341      1.0  0.18608  0.73347  0.76641  1.0000
  H   H342      1.0  0.16171  0.93524  0.88454  1.0000
  H   H343      1.0  0.13733  0.72671  0.71175  1.0000
  S   S48       1.0  0.00494  0.67391  0.89778  1.0000
  H   H344      1.0  0.07015  0.89619  0.85757  1.0000
  H   H345      1.0  0.01040  0.59659  0.86784  1.0000
  C   C196      1.0  0.17239  0.71084  0.90074  1.0000
  C   C197      1.0  0.04561  0.52945  0.95950  1.0000
  H   H346      1.0  0.21661  0.64237  0.83463  1.0000
  H   H347      1.0  0.44402  0.52369  0.70202  1.0000
  H   H348      1.0  0.04337  0.63836  0.80518  1.0000
  H   H349      1.0  0.15534  0.63438  0.87390  1.0000
  H   H350      1.0  0.00214  0.56410  0.82404  1.0000
  C   C198      1.0  0.18443  0.61673  0.82777  1.0000
  H   H351      1.0  0.43786  0.95333  0.70370  1.0000
  H   H352      1.0  0.04032  0.57033  0.86143  1.0000
  H   H353      1.0  0.14514  0.68668  0.91779  1.0000
  H   H354      1.0  0.14110  0.73912  0.86980  1.0000
  H   H355      1.0  0.07809  0.67505  0.86490  1.0000
  H   H356      1.0  0.22385  0.97492  0.86119  1.0000
  H   H357      1.0  0.47069  0.52137  0.98664  1.0000
  H   H358      1.0  0.21610  0.93583  0.82615  1.0000
  H   H359      1.0  0.22478  0.77331  0.91362  1.0000
  C   C199      1.0  0.30079  0.99786  0.84186  1.0000
  H   H360      1.0  0.14525  0.96988  0.67129  1.0000
  H   H361      1.0  0.12936  0.93828  0.73922  1.0000
  C   C200      1.0  0.47120  0.97432  0.70134  1.0000
  N   N10       1.0  0.19024  0.97415  0.80685  1.0000
  Fe  Fe24      1.0  0.03230  0.65501  0.94884  1.0000
  C   C201      1.0  0.19408  0.96855  0.76193  1.0000
  H   H362      1.0  0.17281  0.94202  0.68102  1.0000
  C   C202      1.0  0.02610  0.58661  0.84538  1.0000
  H   H363      1.0  0.43579  0.54225  0.74982  1.0000
  H   H364      1.0  0.13402  0.96342  0.87514  1.0000
  H   H365      1.0  0.46014  0.50998  0.74799  1.0000
  H   H366      1.0  0.48698  0.92682  0.71602  1.0000
  S   S49       1.0  0.01711  0.75274  0.95470  1.0000
  H   H367      1.0  0.22428  0.99430  0.75019  1.0000
  H   H368      1.0  0.15486  0.99473  0.74155  1.0000
  C   C203      1.0  0.45745  0.53531  0.73260  1.0000
  H   H369      1.0  0.27168  0.98255  0.78342  1.0000
  S   S50       1.0  0.33616  0.93409  0.67619  1.0000
  C   C204      1.0  0.26844  0.99639  0.81207  1.0000
  C   C205      1.0  0.17025  0.96976  0.68983  1.0000
  H   H370      1.0  0.49627  0.59779  0.71068  1.0000
  H   H371      1.0  0.20016  0.99879  0.68304  1.0000
  H   H372      1.0  0.51615  0.22039  0.11610  1.0000
  S   S51       1.0  0.94548  0.29061  0.09972  1.0000
  H   H373      1.0  0.95971  0.21715  0.18663  1.0000
  H   H374      1.0  0.92752  0.34852  0.30446  1.0000
  S   S52       1.0  0.80453  0.05605  0.30212  1.0000
  H   H375      1.0  0.56567  0.16015  0.20995  1.0000
  H   H376      1.0  0.95259  0.44361  0.08812  1.0000
  H   H377      1.0  0.84621  0.15526  0.15974  1.0000
  H   H378      1.0  0.94457  0.41194  0.26513  1.0000
  C   C206      1.0  0.96571  0.18462  0.23784  1.0000
  H   H379      1.0  0.88446  0.20925  0.16182  1.0000
  C   C207      1.0  0.96696  0.29736  0.17971  1.0000
  C   C208      1.0  0.87681  0.17419  0.08545  1.0000
  H   H380      1.0  0.85902  0.09103  0.15674  1.0000
  C   C209      1.0  0.53012  0.01904  0.30160  1.0000
  H   H381      1.0  0.84528  0.14583  0.08507  1.0000
  H   H382      1.0  0.90207  0.19081  0.26433  1.0000
  C   C210      1.0  0.84681  0.22229  0.26702  1.0000
  H   H383      1.0  0.90412  0.14567  0.12131  1.0000
  H   H384      1.0  0.93568  0.29162  0.18534  1.0000
  N   N11       1.0  0.89679  0.16987  0.20194  1.0000
  C   C211      1.0  0.90141  0.17420  0.12265  1.0000
  C   C212      1.0  0.60395  0.12241  0.17548  1.0000
  H   H385      1.0  0.62212  0.15698  0.17187  1.0000
  S   S53       1.0  0.60200  0.01401  0.29911  1.0000
  H   H386      1.0  0.55110  0.05225  0.30586  1.0000
  C   C213      1.0  0.54419  0.12567  0.20955  1.0000
  H   H387      1.0  0.83021  0.18564  0.21271  1.0000
  Fe  Fe25      1.0  0.73550  0.00960  0.31309  1.0000
  H   H388      1.0  0.86463  0.22712  0.29551  1.0000
  H   H389      1.0  0.94875  0.15429  0.25393  1.0000
  C   C214      1.0  0.89168  0.19593  0.23440  1.0000
  H   H390      1.0  0.81427  0.21363  0.27498  1.0000
  C   C215      1.0  0.87173  0.12456  0.21447  1.0000
  H   H391      1.0  0.83800  0.11472  0.21687  1.0000
  H   H392      1.0  0.54231  0.39654  0.03587  1.0000
  H   H393      1.0  0.90631  0.09915  0.18148  1.0000
  H   H394      1.0  0.61232  0.10789  0.15033  1.0000
  C   C216      1.0  0.92262  0.34660  0.27117  1.0000
  H   H395      1.0  0.91213  0.22976  0.22772  1.0000
  C   C217      1.0  0.94287  0.18452  0.19839  1.0000
  H   H396      1.0  0.92379  0.48321  0.04967  1.0000
  H   H397      1.0  0.93340  0.20176  0.12011  1.0000
  C   C218      1.0  0.50862  0.38677  0.03455  1.0000
  H   H398      1.0  0.92800  0.32173  0.25858  1.0000
  H   H399      1.0  0.88059  0.12027  0.24538  1.0000
  H   H400      1.0  0.88965  0.33782  0.26523  1.0000
  C   C219      1.0  0.88049  0.17715  0.16245  1.0000
  C   C220      1.0  0.84655  0.18754  0.24142  1.0000
  H   H401      1.0  0.89366  0.17434  0.05753  1.0000
  H   H402      1.0  0.87355  0.20258  0.08521  1.0000
  C   C221      1.0  0.87375  0.09209  0.18628  1.0000
  H   H403      1.0  0.86326  0.04692  0.23396  1.0000
  Fe  Fe26      1.0  0.96903  0.30499  0.03496  1.0000
  H   H404      1.0  0.55166  0.11411  0.23763  1.0000
  C   C222      1.0  0.84957  0.04813  0.20439  1.0000
  H   H405      1.0  0.50264  0.40714  0.05502  1.0000
  C   C223      1.0  0.95191  0.38878  0.25147  1.0000
  H   H406      1.0  0.94866  0.16586  0.17566  1.0000
  H   H407      1.0  0.86114  0.25209  0.24981  1.0000
  H   H408      1.0  0.82794  0.15757  0.25792  1.0000
  H   H409      1.0  0.85096  0.02515  0.18356  1.0000
  H   H410      1.0  0.54097  0.07213  0.17739  1.0000
  H   H411      1.0  0.53475  0.13619  0.29287  1.0000
  H   H412      1.0  0.89227  0.10992  0.31583  1.0000
  H   H413      1.0  0.61277  0.11367  0.20451  1.0000
  H   H414      1.0  0.51646  0.17314  0.24300  1.0000
  H   H415      1.0  0.81623  0.03880  0.20904  1.0000
  C   C224      1.0  0.55704  0.10670  0.17438  1.0000
  C   C225      1.0  0.97040  0.46686  0.06416  1.0000
  H   H416      1.0  0.50853  0.18238  0.31864  1.0000
  H   H417      1.0  0.96908  0.21000  0.25849  1.0000
  C   C226      1.0  0.98076  0.29994  0.13970  1.0000
  C   C227      1.0  0.50387  0.48566  0.08267  1.0000
  H   H418      1.0  0.54564  0.18935  0.16290  1.0000
  H   H419      1.0  0.94469  0.38598  0.21863  1.0000
  H   H420      1.0  0.54985  0.11516  0.14450  1.0000
  H   H421      1.0  0.98134  0.29721  0.24299  1.0000
  H   H422      1.0  0.96467  0.44977  0.03501  1.0000
  C   C228      1.0  0.50135  0.12643  0.28832  1.0000
  H   H423      1.0  0.51313  0.47586  0.10968  1.0000
  H   H424      1.0  0.99077  0.46706  0.23155  1.0000
  C   C229      1.0  0.51146  0.17702  0.16295  1.0000
  C   C230      1.0  0.99292  0.30096  0.21242  1.0000
  H   H425      1.0  0.51708  0.45536  0.99732  1.0000
  H   H426      1.0  0.50394  0.19463  0.18555  1.0000
  C   C231      1.0  0.83247  0.10485  0.32734  1.0000
  H   H427      1.0  0.50813  0.17100  0.09708  1.0000
  S   S54       1.0  0.99624  0.32775  0.32504  1.0000
  N   N12       1.0  0.49925  0.11550  0.21027  1.0000
  H   H428      1.0  0.93401  0.49499  0.12107  1.0000
  C   C232      1.0  0.49944  0.18606  0.12145  1.0000
  C   C233      1.0  0.81217  0.05481  0.45434  1.0000
  S   S55       1.0  0.90767  0.23606  0.38377  1.0000
  H   H429      1.0  0.52382  0.11169  0.58250  1.0000
  S   S56       1.0  0.74079  0.05755  0.58848  1.0000
  C   C234      1.0  0.69983  0.00601  0.47721  1.0000
  C   C235      1.0  0.71895  0.02066  0.54863  1.0000
  C   C236      1.0  0.71476  0.03408  0.51012  1.0000
  H   H430      1.0  0.82050  0.03043  0.39676  1.0000
  H   H431      1.0  0.72337  0.06641  0.50558  1.0000
  C   C237      1.0  0.81549  0.15450  0.46839  1.0000
  C   C238      1.0  0.98087  0.20854  0.45728  1.0000
  C   C239      1.0  0.87954  0.18550  0.36207  1.0000
  H   H432      1.0  0.88547  0.07834  0.59649  1.0000
  H   H433      1.0  0.89734  0.18151  0.44871  1.0000
  S   S57       1.0  0.69315  0.01599  0.35772  1.0000
  C   C240      1.0  0.95894  0.45995  0.34934  1.0000
  H   H434      1.0  0.80037  0.46160  0.46074  1.0000
  C   C241      1.0  0.81808  0.47074  0.48956  1.0000
  C   C242      1.0  0.83565  0.16469  0.36187  1.0000
  C   C243      1.0  0.89983  0.16546  0.34561  1.0000
  H   H435      1.0  0.78662  0.05725  0.46888  1.0000
  C   C244      1.0  0.85775  0.05544  0.57888  1.0000
  C   C245      1.0  0.90378  0.16695  0.47494  1.0000
  H   H436      1.0  0.82012  0.03480  0.47298  1.0000
  C   C246      1.0  0.79572  0.03262  0.41379  1.0000
  H   H437      1.0  0.90264  0.13117  0.53911  1.0000
  H   H438      1.0  0.98916  0.22631  0.48624  1.0000
  C   C247      1.0  0.94326  0.16465  0.46282  1.0000
  H   H439      1.0  0.65745  0.03762  0.60506  1.0000
  H   H440      1.0  0.84313  0.44213  0.53039  1.0000
  C   C248      1.0  0.78601  0.16743  0.48771  1.0000
  H   H441      1.0  0.86578  0.03467  0.56136  1.0000
  H   H442      1.0  0.77842  0.10921  0.34382  1.0000
  H   H443      1.0  0.95179  0.14854  0.48601  1.0000
  C   C249      1.0  0.87750  0.10638  0.51999  1.0000
  H   H444      1.0  0.84067  0.18277  0.45358  1.0000
  H   H445      1.0  0.84635  0.11459  0.42329  1.0000
  H   H446      1.0  0.77310  0.17900  0.46390  1.0000
  C   C250      1.0  0.55220  0.07319  0.58139  1.0000
  H   H447      1.0  0.91262  0.18988  0.50033  1.0000
  H   H448      1.0  0.93820  0.14794  0.43354  1.0000
  H   H449      1.0  0.97399  0.22609  0.43419  1.0000
  H   H450      1.0  0.79762  0.13065  0.44478  1.0000
  H   H451      1.0  0.84508  0.15851  0.52650  1.0000
  H   H452      1.0  0.80311  0.19298  0.51007  1.0000
  C   C251      1.0  0.62643  0.03444  0.59951  1.0000
  C   C252      1.0  0.85141  0.09831  0.44907  1.0000
  N   N13       1.0  0.86544  0.12601  0.48614  1.0000
  C   C253      1.0  0.83263  0.13621  0.50049  1.0000
  H   H453      1.0  0.57544  0.09001  0.55713  1.0000
  H   H454      1.0  0.75963  0.14049  0.50316  1.0000
  H   H455      1.0  0.96772  0.40673  0.35921  1.0000
  H   H456      1.0  0.54254  0.03947  0.58070  1.0000
  H   H457      1.0  0.69708  0.01692  0.44768  1.0000
  C   C254      1.0  0.84291  0.07814  0.55066  1.0000
  H   H458      1.0  0.83469  0.09774  0.56997  1.0000
  H   H459      1.0  0.80467  0.10820  0.51260  1.0000
  H   H460      1.0  0.56727  0.08621  0.61106  1.0000
  H   H461      1.0  0.80038  0.48738  0.36071  1.0000
  H   H462      1.0  0.89117  0.08786  0.50720  1.0000
  H   H463      1.0  0.81973  0.17999  0.37462  1.0000
  H   H464      1.0  0.87630  0.09200  0.43854  1.0000
  H   H465      1.0  0.81402  0.05419  0.53558  1.0000
  H   H466      1.0  0.79573  0.40560  0.50452  1.0000
  H   H467      1.0  0.51620  0.09250  0.51275  1.0000
  H   H468      1.0  0.61035  0.03004  0.62899  1.0000
  H   H469      1.0  0.84447  0.43043  0.47728  1.0000
  H   H470      1.0  0.83236  0.03591  0.60051  1.0000
  H   H471      1.0  0.78407  0.04974  0.39525  1.0000
  C   C255      1.0  0.81217  0.12454  0.34457  1.0000
  C   C256      1.0  0.82602  0.43517  0.50117  1.0000
  H   H472      1.0  0.63117  0.06385  0.58556  1.0000
  Fe  Fe27      1.0  0.97730  0.27928  0.37367  1.0000
  C   C257      1.0  0.98282  0.44047  0.35703  1.0000
  H   H473      1.0  0.92548  0.44086  0.34552  1.0000
  H   H474      1.0  0.93358  0.18095  0.34607  1.0000
  C   C258      1.0  0.87634  0.12525  0.32847  1.0000
  C   C259      1.0  0.51393  0.07833  0.57638  1.0000
  H   H475      1.0  0.49887  0.03947  0.52268  1.0000
  Fe  Fe28      1.0  0.72304  0.03444  0.65324  1.0000
  H   H476      1.0  0.79861  0.47310  0.51384  1.0000
  H   H477      1.0  0.61644  0.00442  0.54171  1.0000
  H   H478      1.0  0.76922  0.00046  0.41899  1.0000
  H   H479      1.0  0.92775  0.34222  0.76486  1.0000
  S   S58       1.0  0.95205  0.40799  0.94763  1.0000
  C   C260      1.0  0.98080  0.46348  0.95055  1.0000
  H   H480      1.0  0.84876  0.26725  0.83616  1.0000
  Fe  Fe29      1.0  0.95791  0.27408  0.94617  1.0000
  S   S59       1.0  0.93167  0.22149  0.89768  1.0000
  Fe  Fe30      1.0  0.73573  0.05758  0.74405  1.0000
  S   S60       1.0  0.76307  0.10688  0.79566  1.0000
  H   H481      1.0  0.97196  0.32167  0.77726  1.0000
  H   H482      1.0  0.95170  0.36599  0.87192  1.0000
  H   H483      1.0  0.54220  0.07595  0.68200  1.0000
  C   C261      1.0  0.87122  0.29407  0.89572  1.0000
  H   H484      1.0  0.92703  0.46958  0.93693  1.0000
  H   H485      1.0  0.89121  0.32472  0.91064  1.0000
  H   H486      1.0  0.76858  0.00802  0.81788  1.0000
  C   C262      1.0  0.88421  0.18949  0.87004  1.0000
  C   C263      1.0  0.88522  0.16701  0.83582  1.0000
  C   C264      1.0  0.84872  0.14141  0.81287  1.0000
  C   C265      1.0  0.81045  0.13799  0.82365  1.0000
  C   C266      1.0  0.80948  0.16045  0.85788  1.0000
  C   C267      1.0  0.84583  0.18559  0.88109  1.0000
  H   H487      1.0  0.91449  0.16931  0.82699  1.0000
  H   H488      1.0  0.85024  0.12444  0.78677  1.0000
  H   H489      1.0  0.78011  0.15781  0.86693  1.0000
  H   H490      1.0  0.84382  0.20103  0.90810  1.0000
  C   C268      1.0  0.89895  0.32355  0.78281  1.0000
  S   S61       1.0  0.76732  0.03471  0.70053  1.0000
  C   C269      1.0  0.93197  0.29927  0.83191  1.0000
  H   H491      1.0  0.87520  0.36755  0.79191  1.0000
  C   C270      1.0  0.53001  0.04322  0.68891  1.0000
  H   H492      1.0  0.83582  0.31486  0.77947  1.0000
  H   H493      1.0  0.88473  0.29122  0.77002  1.0000
  C   C271      1.0  0.93360  0.36668  0.84525  1.0000
  C   C272      1.0  0.55796  0.02820  0.69560  1.0000
  S   S62       1.0  0.92480  0.29876  0.98493  1.0000
  C   C273      1.0  0.82821  0.27406  0.91575  1.0000
  H   H494      1.0  0.80670  0.24324  0.90163  1.0000
  C   C274      1.0  0.97449  0.31688  0.80996  1.0000
  H   H495      1.0  0.88449  0.27360  0.90200  1.0000
  C   C275      1.0  0.86799  0.29922  0.84950  1.0000
  H   H496      1.0  0.59414  0.48949  0.91524  1.0000
  H   H497      1.0  0.84924  0.31506  0.84645  1.0000
  H   H498      1.0  0.96885  0.25537  0.80160  1.0000
  C   C276      1.0  0.99167  0.28691  0.81351  1.0000
  H   H499      1.0  0.91162  0.26611  0.82197  1.0000
  H   H500      1.0  0.50205  0.36801  0.97277  1.0000
  N   N14       1.0  0.90896  0.32326  0.82705  1.0000
  H   H501      1.0  0.98521  0.39462  0.80030  1.0000
  H   H502      1.0  0.97176  0.45298  0.85746  1.0000
  C   C277      1.0  0.99151  0.44267  0.84135  1.0000
  C   C278      1.0  0.86844  0.33985  0.77313  1.0000
  S   S63       1.0  0.69538  0.06277  0.69507  1.0000
  H   H503      1.0  0.91225  0.37714  0.85776  1.0000
  H   H504      1.0  0.84727  0.36166  0.72237  1.0000
  H   H505      1.0  0.83128  0.26906  0.94842  1.0000
  H   H506      1.0  0.94679  0.41009  0.79448  1.0000
  H   H507      1.0  0.55370  0.44279  0.97604  1.0000
  H   H508      1.0  0.59131  0.04930  0.69371  1.0000
  H   H509      1.0  0.86327  0.32432  0.70886  1.0000
  H   H510      1.0  0.90208  0.37797  0.72092  1.0000
  H   H511      1.0  0.93908  0.29770  0.86423  1.0000
  N   N15       1.0  0.50891  0.44215  0.93313  1.0000
  C   C279      1.0  0.87053  0.35165  0.72854  1.0000
  C   C280      1.0  0.52035  0.43448  0.97489  1.0000
  H   H512      1.0  0.81461  0.29486  0.91299  1.0000
  C   C281      1.0  0.53456  0.48876  0.92530  1.0000
  H   H513      1.0  0.52514  0.34912  0.87619  1.0000
  C   C282      1.0  0.96428  0.40266  0.81710  1.0000
  H   H514      1.0  0.51401  0.37204  0.83279  1.0000
  C   C283      1.0  0.50077  0.35329  0.86074  1.0000
  C   C284      1.0  0.96016  0.48624  0.94346  1.0000
  C   C285      1.0  0.51936  0.41933  0.90111  1.0000
  H   H515      1.0  0.54714  0.41715  0.91052  1.0000
  Fe  Fe31      1.0  0.97521  0.36349  0.96671  1.0000
  H   H516      1.0  0.52884  0.43746  0.87232  1.0000
  H   H517      1.0  0.52224  0.49825  0.70270  1.0000
  H   H518      1.0  0.52908  0.49601  0.89399  1.0000
  H   H519      1.0  0.58785  0.83381  0.16684  1.0000
  Fe  Fe32      1.0  0.96101  0.65621  0.26996  1.0000
  S   S64       1.0  0.93892  0.65695  0.20597  1.0000
  Fe  Fe33      1.0  0.71461  0.68672  0.02757  1.0000
  S   S65       1.0  0.91397  0.60665  0.31061  1.0000
  S   S66       1.0  0.77392  0.68695  0.04798  1.0000
  H   H520      1.0  0.88802  0.68983  0.17163  1.0000
  H   H521      1.0  0.94100  0.62255  0.06771  1.0000
  H   H522      1.0  0.71658  0.71495  0.15129  1.0000
  Fe  Fe34      1.0  0.66655  0.73277  0.04885  1.0000
  S   S67       1.0  0.66837  0.78927  0.08177  1.0000
  S   S68       1.0  0.66075  0.67181  0.07035  1.0000
  C   C286      1.0  0.82503  0.64222  0.27765  1.0000
  C   C287      1.0  0.56233  0.90379  0.18790  1.0000
  H   H523      1.0  0.76183  0.74307  0.11960  1.0000
  C   C288      1.0  0.85045  0.69657  0.02713  1.0000
  Fe  Fe35      1.0  0.66966  0.91921  0.28893  1.0000
  S   S69       1.0  0.65594  0.85721  0.25810  1.0000
  H   H524      1.0  0.82441  0.74231  0.17638  1.0000
  H   H525      1.0  0.91083  0.70402  0.01177  1.0000
  H   H526      1.0  0.82152  0.72642  0.12499  1.0000
  S   S70       1.0  0.68704  0.98263  0.26339  1.0000
  C   C289      1.0  0.66662  0.80779  0.13159  1.0000
  C   C290      1.0  0.67648  0.84979  0.13664  1.0000
  C   C291      1.0  0.67436  0.86579  0.17503  1.0000
  C   C292      1.0  0.66166  0.83977  0.20906  1.0000
  C   C293      1.0  0.65146  0.79769  0.20399  1.0000
  C   C294      1.0  0.65414  0.78185  0.16570  1.0000
  H   H527      1.0  0.68597  0.87018  0.11057  1.0000
  H   H528      1.0  0.68219  0.89812  0.17817  1.0000
  H   H529      1.0  0.64141  0.77710  0.22993  1.0000
  H   H530      1.0  0.64607  0.74945  0.16248  1.0000
  H   H531      1.0  0.51529  0.76649  0.23587  1.0000
  C   C295      1.0  0.52061  0.53708  0.02921  1.0000
  C   C296      1.0  0.95770  0.55854  0.18186  1.0000
  H   H532      1.0  0.55840  0.87969  0.24752  1.0000
  H   H533      1.0  0.96721  0.53447  0.18007  1.0000
  S   S71       1.0  0.97751  0.70722  0.31606  1.0000
  H   H534      1.0  0.52221  0.82042  0.29267  1.0000
  C   C297      1.0  0.80769  0.64828  0.13976  1.0000
  H   H535      1.0  0.86135  0.71385  0.05519  1.0000
  H   H536      1.0  0.56926  0.89950  0.15619  1.0000
  H   H537      1.0  0.54581  0.83413  0.14122  1.0000
  S   S72       1.0  0.55546  0.58355  0.00255  1.0000
  C   C298      1.0  0.81519  0.67188  0.21170  1.0000
  H   H538      1.0  0.92764  0.67202  0.12327  1.0000
  H   H539      1.0  0.62602  0.95519  0.19551  1.0000
  C   C299      1.0  0.89827  0.75202  0.18297  1.0000
  S   S73       1.0  0.99147  0.66066  0.99573  1.0000
  H   H540      1.0  0.88129  0.71407  0.12880  1.0000
  H   H541      1.0  0.89502  0.77579  0.16515  1.0000
  H   H542      1.0  0.88613  0.75119  0.21388  1.0000
  C   C300      1.0  0.88598  0.58615  0.03212  1.0000
  C   C301      1.0  0.93516  0.56043  0.14281  1.0000
  H   H543      1.0  0.91852  0.57124  0.22233  1.0000
  N   N16       1.0  0.95475  0.55915  0.10300  1.0000
  H   H544      1.0  0.81797  0.60001  0.08025  1.0000
  C   C302      1.0  0.55315  0.81900  0.16650  1.0000
  H   H545      1.0  0.75029  0.68138  0.18792  1.0000
  Fe  Fe36      1.0  0.61962  0.64134  0.01532  1.0000
  H   H546      1.0  0.85612  0.55588  0.03327  1.0000
  C   C303      1.0  0.97539  0.68317  0.16707  1.0000
  H   H547      1.0  0.90209  0.53434  0.14389  1.0000
  H   H548      1.0  0.98908  0.52724  0.11731  1.0000
  H   H549      1.0  0.58433  0.78702  0.10876  1.0000
  C   C304      1.0  0.84396  0.66046  0.23636  1.0000
  H   H550      1.0  0.87481  0.68869  0.24203  1.0000
  C   C305      1.0  0.56524  0.87228  0.21691  1.0000
  H   H551      1.0  0.78281  0.64464  0.21299  1.0000
  H   H552      1.0  0.58913  0.95501  0.23178  1.0000
  C   C306      1.0  0.54973  0.76934  0.11108  1.0000
  C   C307      1.0  0.54200  0.79916  0.23802  1.0000
  C   C308      1.0  0.53224  0.52408  0.06417  1.0000
  H   H553      1.0  0.57096  0.77357  0.30359  1.0000
  H   H554      1.0  0.57057  0.79698  0.23200  1.0000
  C   C309      1.0  0.54658  0.81333  0.28293  1.0000
  C   C310      1.0  0.94485  0.76676  0.18617  1.0000
  C   C311      1.0  0.51916  0.94911  0.29308  1.0000
  C   C312      1.0  0.95916  0.52037  0.10260  1.0000
  S   S74       1.0  0.72230  0.74888  0.00924  1.0000
  H   H555      1.0  0.82023  0.66502  0.29561  1.0000
  H   H556      1.0  0.84969  0.63739  0.22049  1.0000
  H   H557      1.0  0.57720  0.84201  0.28753  1.0000
  H   H558      1.0  0.81394  0.65948  0.10784  1.0000
  C   C313      1.0  0.75109  0.72916  0.15012  1.0000
  C   C314      1.0  0.92953  0.54836  0.21897  1.0000
  H   H559      1.0  0.97725  0.70931  0.06765  1.0000
  H   H560      1.0  0.56309  0.54345  0.07683  1.0000
  C   C315      1.0  0.80457  0.58363  0.10932  1.0000
  C   C316      1.0  0.87397  0.70872  0.16174  1.0000
  C   C317      1.0  0.54671  0.99205  0.29836  1.0000
  C   C318      1.0  0.81109  0.71431  0.15628  1.0000
  N   N17       1.0  0.53773  0.82648  0.20644  1.0000
  H   H561      1.0  0.81375  0.55944  0.11364  1.0000
  H   H562      1.0  0.77316  0.63082  0.14302  1.0000
  H   H563      1.0  0.74704  0.67119  0.13428  1.0000
  H   H564      1.0  0.98610  0.58942  0.18744  1.0000
  C   C319      1.0  0.76294  0.69551  0.15793  1.0000
  C   C320      1.0  0.96078  0.68590  0.12865  1.0000
  H   H565      1.0  0.80718  0.59661  0.17275  1.0000
  H   H566      1.0  0.89458  0.58897  0.09611  1.0000
  C   C321      1.0  0.91313  0.59096  0.06894  1.0000
  N   N18       1.0  0.82729  0.68537  0.16823  1.0000
  C   C322      1.0  0.59358  0.94892  0.19975  1.0000
  H   H567      1.0  0.93938  0.55742  0.03922  1.0000
  C   C323      1.0  0.80855  0.68047  0.01534  1.0000
  H   H568      1.0  0.59854  0.88012  0.21842  1.0000
  C   C324      1.0  0.82090  0.61473  0.14461  1.0000
  H   H569      1.0  0.81404  0.69708  0.22942  1.0000
  H   H570      1.0  0.87870  0.61198  0.03178  1.0000
  H   H571      1.0  0.76994  0.56781  0.10760  1.0000
  H   H572      1.0  0.76505  0.75431  0.17337  1.0000
  H   H573      1.0  0.58907  0.97089  0.18033  1.0000
  H   H574      1.0  0.94998  0.74537  0.20591  1.0000
  H   H575      1.0  0.96149  0.79859  0.19975  1.0000
  H   H576      1.0  0.54759  0.75691  0.17446  1.0000
  H   H577      1.0  0.85521  0.62840  0.14539  1.0000
  C   C325      1.0  0.98886  0.70679  0.09695  1.0000
  H   H578      1.0  0.84665  0.63519  0.29481  1.0000
  H   H579      1.0  0.93404  0.58995  0.14575  1.0000
  H   H580      1.0  0.53877  0.73605  0.10351  1.0000
  H   H581      1.0  0.53067  0.90017  0.18918  1.0000
  H   H582      1.0  0.94715  0.54981  0.24673  1.0000
  C   C326      1.0  0.92579  0.55662  0.06939  1.0000
  H   H583      1.0  0.99386  0.62680  0.10146  1.0000
  H   H584      1.0  0.95822  0.76784  0.15576  1.0000
  H   H585      1.0  0.79474  0.61269  0.27407  1.0000
  C   C327      1.0  0.53580  0.77250  0.15390  1.0000
  H   H586      1.0  0.53137  0.92797  0.29055  1.0000
  H   H587      1.0  0.89616  0.52594  0.07091  1.0000
  H   H588      1.0  0.90250  0.58769  0.00351  1.0000
  H   H589      1.0  0.70426  0.83748  0.00558  1.0000
  Fe  Fe37      1.0  0.64279  0.98416  0.31013  1.0000
  C   C328      1.0  0.87861  0.69111  0.00253  1.0000
  H   H590      1.0  0.97616  0.52236  0.03745  1.0000
  H   H591      1.0  0.53651  0.78190  0.08860  1.0000
  H   H592      1.0  0.90203  0.51635  0.21648  1.0000
  S   S75       1.0  0.62220  0.70145  0.99659  1.0000
  C   C329      1.0  0.95656  0.49950  0.06083  1.0000
  C   C330      1.0  0.54539  0.78003  0.31123  1.0000
  H   H593      1.0  0.51484  0.75057  0.30896  1.0000
  C   C331      1.0  0.99696  0.59833  0.10010  1.0000
  H   H594      1.0  0.50121  0.75457  0.15443  1.0000
  H   H595      1.0  0.73895  0.84890  0.32438  1.0000
  Fe  Fe38      1.0  0.93330  0.65628  0.35877  1.0000
  S   S76       1.0  0.87560  0.65355  0.38910  1.0000
  H   H596      1.0  0.73297  0.53962  0.52504  1.0000
  H   H597      1.0  0.51298  0.50980  0.55435  1.0000
  C   C332      1.0  0.70209  0.83455  0.42407  1.0000
  H   H598      1.0  0.60341  0.80097  0.53045  1.0000
  Fe  Fe39      1.0  0.75265  0.67392  0.59128  1.0000
  S   S77       1.0  0.70030  0.67825  0.56117  1.0000
  S   S78       1.0  0.81266  0.67971  0.56285  1.0000
  Fe  Fe40      1.0  0.65649  0.62725  0.60393  1.0000
  S   S79       1.0  0.59505  0.57434  0.57860  1.0000
  Fe  Fe41      1.0  0.70698  0.72270  0.61141  1.0000
  S   S80       1.0  0.70552  0.78186  0.59472  1.0000
  H   H599      1.0  0.73227  0.72087  0.47371  1.0000
  C   C333      1.0  0.85735  0.52779  0.39459  1.0000
  H   H600      1.0  0.79574  0.63849  0.41772  1.0000
  Fe  Fe42      1.0  0.67527  0.95084  0.37713  1.0000
  S   S81       1.0  0.66969  0.92779  0.44206  1.0000
  H   H601      1.0  0.73580  0.89778  0.53568  1.0000
  C   C334      1.0  0.69176  0.95041  0.52141  1.0000
  C   C335      1.0  0.63977  0.79032  0.48493  1.0000
  H   H602      1.0  0.68267  0.91801  0.52612  1.0000
  C   C336      1.0  0.76249  0.90501  0.51558  1.0000
  C   C337      1.0  0.70769  0.85347  0.62154  1.0000
  H   H603      1.0  0.88174  0.50711  0.46750  1.0000
  H   H604      1.0  0.75581  0.83557  0.39360  1.0000
  H   H605      1.0  0.70134  0.85734  0.59055  1.0000
  H   H606      1.0  0.83501  0.56816  0.41748  1.0000
  C   C338      1.0  0.55230  0.53554  0.60694  1.0000
  H   H607      1.0  0.70480  0.76224  0.44154  1.0000
  C   C339      1.0  0.68862  0.96409  0.48263  1.0000
  C   C340      1.0  0.85942  0.66281  0.43733  1.0000
  C   C341      1.0  0.88674  0.67994  0.47025  1.0000
  C   C342      1.0  0.87188  0.68513  0.50810  1.0000
  C   C343      1.0  0.82969  0.67389  0.51366  1.0000
  C   C344      1.0  0.80251  0.65728  0.48058  1.0000
  C   C345      1.0  0.81727  0.65170  0.44284  1.0000
  H   H608      1.0  0.91927  0.68915  0.46661  1.0000
  H   H609      1.0  0.89330  0.69808  0.53333  1.0000
  H   H610      1.0  0.76998  0.64829  0.48419  1.0000
  H   H611      1.0  0.77636  0.89925  0.45358  1.0000
  C   C346      1.0  0.70720  0.97859  0.55421  1.0000
  H   H612      1.0  0.71075  0.96792  0.58361  1.0000
  C   C347      1.0  0.74271  0.82056  0.47660  1.0000
  H   H613      1.0  0.60944  0.96096  0.45257  1.0000
  H   H614      1.0  0.56967  0.99525  0.56801  1.0000
  H   H615      1.0  0.57266  0.90651  0.44170  1.0000
  H   H616      1.0  0.82713  0.54178  0.34518  1.0000
  S   S82       1.0  0.76215  0.72203  0.63924  1.0000
  C   C348      1.0  0.55620  0.93241  0.49355  1.0000
  H   H617      1.0  0.52199  0.91084  0.49036  1.0000
  C   C349      1.0  0.55464  0.53201  0.64885  1.0000
  H   H618      1.0  0.68345  0.85043  0.41901  1.0000
  H   H619      1.0  0.92830  0.58169  0.52289  1.0000
  H   H620      1.0  0.52571  0.93546  0.63443  1.0000
  C   C350      1.0  0.52049  0.90929  0.57329  1.0000
  C   C351      1.0  0.97057  0.63991  0.49471  1.0000
  H   H621      1.0  0.68009  0.80085  0.41846  1.0000
  H   H622      1.0  0.80332  0.51492  0.42978  1.0000
  C   C352      1.0  0.71128  0.81860  0.63243  1.0000
  H   H623      1.0  0.78022  0.89092  0.52871  1.0000
  H   H624      1.0  0.60753  0.86965  0.55232  1.0000
  H   H625      1.0  0.77192  0.83411  0.45842  1.0000
  H   H626      1.0  0.62500  0.79850  0.45995  1.0000
  H   H627      1.0  0.77031  0.50843  0.48996  1.0000
  H   H628      1.0  0.50134  0.87915  0.63322  1.0000
  H   H629      1.0  0.67503  0.85486  0.50019  1.0000
  H   H630      1.0  0.86067  0.50067  0.40368  1.0000
  C   C353      1.0  0.59641  0.95658  0.58862  1.0000
  C   C354      1.0  0.73540  0.84944  0.39006  1.0000
  C   C355      1.0  0.71958  0.77238  0.47170  1.0000
  Fe  Fe43      1.0  0.96568  0.59601  0.33193  1.0000
  C   C356      1.0  0.76682  0.55206  0.53047  1.0000
  H   H631      1.0  0.56114  0.96352  0.50231  1.0000
  C   C357      1.0  0.78626  0.54278  0.49386  1.0000
  S   S83       1.0  0.65917  0.67222  0.65155  1.0000
  C   C358      1.0  0.68236  0.82917  0.49636  1.0000
  H   H632      1.0  0.64290  0.76346  0.47469  1.0000
  C   C359      1.0  0.51507  0.50740  0.58679  1.0000
  H   H633      1.0  0.97031  0.66480  0.47605  1.0000
  H   H634      1.0  0.88872  0.55438  0.38719  1.0000
  H   H635      1.0  0.73257  0.90648  0.45979  1.0000
  H   H636      1.0  0.77444  0.96822  0.50400  1.0000
  H   H637      1.0  0.62289  0.76690  0.54665  1.0000
  H   H638      1.0  0.56008  0.94657  0.42932  1.0000
  H   H639      1.0  0.69559  0.75762  0.49574  1.0000
  H   H640      1.0  0.57960  0.74791  0.51188  1.0000
  H   H641      1.0  0.69147  0.82376  0.52686  1.0000
  H   H642      1.0  0.87337  0.51974  0.51676  1.0000
  C   C360      1.0  0.83144  0.51557  0.35572  1.0000
  H   H643      1.0  0.75334  0.82633  0.50867  1.0000
  H   H644      1.0  0.77447  0.76859  0.45331  1.0000
  C   C361      1.0  0.60036  0.99735  0.57149  1.0000
  H   H645      1.0  0.91109  0.61955  0.52235  1.0000
  H   H646      1.0  0.84611  0.59708  0.49592  1.0000
  H   H647      1.0  0.60881  0.93046  0.52073  1.0000
  C   C362      1.0  0.71468  0.83662  0.34839  1.0000
  C   C363      1.0  0.60966  0.77576  0.52079  1.0000
  C   C364      1.0  0.79102  0.95251  0.51633  1.0000
  N   N19       1.0  0.71826  0.84227  0.46704  1.0000
  H   H648      1.0  0.75500  0.88411  0.39008  1.0000
  C   C365      1.0  0.56511  0.88066  0.59123  1.0000
  C   C366      1.0  0.83433  0.56290  0.49879  1.0000
  C   C367      1.0  0.74967  0.75553  0.47679  1.0000
  H   H649      1.0  0.76435  0.76353  0.50731  1.0000
  H   H650      1.0  0.77044  0.53704  0.55807  1.0000
  H   H651      1.0  0.56231  0.88141  0.51520  1.0000
  C   C368      1.0  0.85965  0.51266  0.48586  1.0000
  H   H652      1.0  0.77935  0.55611  0.46673  1.0000
  H   H653      1.0  0.90107  0.61114  0.44682  1.0000
  S   S84       1.0  0.70837  0.61982  0.63089  1.0000
  C   C369      1.0  0.57438  0.91447  0.52502  1.0000
  C   C370      1.0  0.74753  0.88891  0.47180  1.0000
  C   C371      1.0  0.83636  0.54025  0.42834  1.0000
  C   C372      1.0  0.90114  0.58545  0.46442  1.0000
  H   H654      1.0  0.84120  0.55838  0.53061  1.0000
  H   H655      1.0  0.69626  0.80197  0.34552  1.0000
  H   H656      1.0  0.56296  0.88399  0.62457  1.0000
  S   S85       1.0  0.62219  0.91914  0.33265  1.0000
  H   H657      1.0  0.59134  0.95584  0.62189  1.0000
  H   H658      1.0  0.62806  0.96048  0.58550  1.0000
  N   N20       1.0  0.85698  0.54942  0.46945  1.0000
  C   C373      1.0  0.92600  0.60528  0.50406  1.0000
  H   H659      1.0  0.92020  0.57552  0.44639  1.0000
  H   H660      1.0  0.53737  0.85011  0.58262  1.0000
  H   H661      1.0  0.57175  0.81028  0.60275  1.0000
  H   H662      1.0  0.81972  0.96183  0.49831  1.0000
  H   H663      1.0  0.80015  0.96318  0.54806  1.0000
  H   H664      1.0  0.78174  0.58632  0.53577  1.0000
  C   C374      1.0  0.57581  0.93675  0.45181  1.0000
  N   N21       1.0  0.56419  0.91611  0.56918  1.0000
  S   S86       1.0  0.98252  0.64265  0.38279  1.0000
  C   C375      1.0  0.97789  0.50386  0.34704  1.0000
  H   H665      1.0  0.62764  0.83487  0.60211  1.0000
  C   C376      1.0  0.60429  0.87611  0.58453  1.0000
  H   H666      1.0  0.70867  0.90979  0.64181  1.0000
  H   H667      1.0  0.63327  0.90476  0.59389  1.0000
  H   H668      1.0  0.84795  0.50832  0.33167  1.0000
  S   S87       1.0  0.94610  0.52662  0.33741  1.0000
  H   H669      1.0  0.54990  0.79152  0.34297  1.0000
  C   C377      1.0  0.60118  0.83981  0.60954  1.0000
  S   S88       1.0  0.72088  0.94618  0.33565  1.0000
  H   H670      1.0  0.69368  0.84969  0.34331  1.0000
  H   H671      1.0  0.98783  0.62693  0.47823  1.0000
  H   H672      1.0  0.51718  0.93405  0.55772  1.0000
  C   C378      1.0  0.71154  0.88312  0.65067  1.0000
  H   H673      1.0  0.98740  0.65426  0.52339  1.0000
  H   H674      1.0  0.60255  0.84692  0.64241  1.0000
  C   C379      1.0  0.50439  0.90692  0.61712  1.0000
  H   H675      1.0  0.49796  0.87956  0.55774  1.0000
  C   C380      1.0  0.83149  0.66435  0.79739  1.0000
  S   S89       1.0  0.89910  0.66161  0.93357  1.0000
  H   H676      1.0  0.87763  0.79095  0.80599  1.0000
  H   H677      1.0  0.75973  0.87256  0.79402  1.0000
  S   S90       1.0  0.72045  0.65641  0.74268  1.0000
  Fe  Fe44      1.0  0.67751  0.71292  0.95904  1.0000
  S   S91       1.0  0.68502  0.73972  0.89535  1.0000
  H   H678      1.0  0.61327  0.65999  0.81597  1.0000
  C   C381      1.0  0.68526  0.83290  0.97800  1.0000
  Fe  Fe45      1.0  0.71446  0.96968  0.71414  1.0000
  S   S92       1.0  0.72437  0.91487  0.72868  1.0000
  H   H679      1.0  0.70064  0.86888  0.80119  1.0000
  C   C382      1.0  0.54265  0.98603  0.70508  1.0000
  H   H680      1.0  0.63865  0.69470  0.73147  1.0000
  C   C383      1.0  0.59185  0.57336  0.78136  1.0000
  C   C384      1.0  0.98208  0.53041  0.94447  1.0000
  C   C385      1.0  0.79278  0.75049  0.93103  1.0000
  H   H681      1.0  0.72864  0.83906  0.73325  1.0000
  C   C386      1.0  0.70972  0.67977  0.78432  1.0000
  C   C387      1.0  0.70352  0.66104  0.82258  1.0000
  C   C388      1.0  0.69635  0.67928  0.85685  1.0000
  C   C389      1.0  0.69480  0.71625  0.85310  1.0000
  C   C390      1.0  0.70078  0.73490  0.81478  1.0000
  C   C391      1.0  0.70848  0.71690  0.78055  1.0000
  H   H682      1.0  0.70452  0.63233  0.82576  1.0000
  H   H683      1.0  0.69190  0.66463  0.88611  1.0000
  H   H684      1.0  0.69943  0.76335  0.81141  1.0000
  H   H685      1.0  0.71377  0.73190  0.75130  1.0000
  C   C392      1.0  0.55751  0.61647  0.84938  1.0000
  H   H686      1.0  0.81202  0.63498  0.92651  1.0000
  H   H687      1.0  0.78524  0.68138  0.81462  1.0000
  C   C393      1.0  0.51982  0.59305  0.77045  1.0000
  Fe  Fe46      1.0  0.96810  0.68509  0.94589  1.0000
  S   S93       1.0  0.57596  0.96445  0.71162  1.0000
  C   C394      1.0  0.58258  0.50870  0.93029  1.0000
  N   N22       1.0  0.71396  0.86788  0.86503  1.0000
  C   C395      1.0  0.68485  0.85184  0.82909  1.0000
  C   C396      1.0  0.74796  0.85691  0.85937  1.0000
  C   C397      1.0  0.68891  0.84448  0.90190  1.0000
  C   C398      1.0  0.73227  0.91442  0.87217  1.0000
  C   C399      1.0  0.74085  0.94246  0.83425  1.0000
  C   C400      1.0  0.64386  0.85351  0.83345  1.0000
  C   C401      1.0  0.71413  0.85108  0.94146  1.0000
  Fe  Fe47      1.0  0.71391  0.66841  0.67614  1.0000
  C   C402      1.0  0.82227  0.74728  0.86249  1.0000
  H   H688      1.0  0.81598  0.77762  0.71289  1.0000
  C   C403      1.0  0.71921  0.87820  0.69113  1.0000
  H   H689      1.0  0.76944  0.86741  0.88580  1.0000
  H   H690      1.0  0.67118  0.81011  0.89580  1.0000
  H   H691      1.0  0.66489  0.85339  0.90889  1.0000
  H   H692      1.0  0.71127  0.92047  0.89177  1.0000
  H   H693      1.0  0.76203  0.92714  0.88949  1.0000
  H   H694      1.0  0.71115  0.93546  0.81931  1.0000
  H   H695      1.0  0.76011  0.93778  0.81156  1.0000
  H   H696      1.0  0.62144  0.82730  0.85289  1.0000
  H   H697      1.0  0.64970  0.88331  0.84760  1.0000
  H   H698      1.0  0.73585  0.88485  0.94731  1.0000
  H   H699      1.0  0.73238  0.83462  0.93952  1.0000
  H   H700      1.0  0.79909  0.90978  0.82780  1.0000
  H   H701      1.0  0.59865  0.53848  0.73130  1.0000
  H   H702      1.0  0.64001  0.56658  0.91738  1.0000
  C   C404      1.0  0.57895  0.63812  0.88897  1.0000
  H   H703      1.0  0.78788  0.60063  0.81715  1.0000
  C   C405      1.0  0.86496  0.66898  0.96603  1.0000
  H   H704      1.0  0.58916  0.74087  0.72138  1.0000
  H   H705      1.0  0.82461  0.86989  0.78936  1.0000
  H   H706      1.0  0.78404  0.73563  0.96134  1.0000
  C   C406      1.0  0.81043  0.72834  0.90557  1.0000
  H   H707      1.0  0.97210  0.80924  0.90874  1.0000
  C   C407      1.0  0.61463  0.55373  0.76002  1.0000
  H   H708      1.0  0.85907  0.81492  0.74333  1.0000
  H   H709      1.0  0.78262  0.82109  0.80808  1.0000
  H   H710      1.0  0.96592  0.54753  0.93857  1.0000
  H   H711      1.0  0.77016  0.61810  0.77423  1.0000
  H   H712      1.0  0.62226  0.71563  0.77218  1.0000
  H   H713      1.0  0.86320  0.77478  0.71514  1.0000
  H   H714      1.0  0.57203  0.67153  0.81642  1.0000
  C   C408      1.0  0.88253  0.73466  0.85754  1.0000
  C   C409      1.0  0.91393  0.77852  0.87484  1.0000
  C   C410      1.0  0.84190  0.78179  0.73298  1.0000
  H   H715      1.0  0.84079  0.78201  0.86527  1.0000
  C   C411      1.0  0.94924  0.77735  0.89772  1.0000
  C   C412      1.0  0.85909  0.75708  0.79820  1.0000
  H   H716      1.0  0.87294  0.71127  0.88237  1.0000
  H   H717      1.0  0.90078  0.72629  0.83652  1.0000
  H   H718      1.0  0.89873  0.78990  0.89633  1.0000
  H   H719      1.0  0.92819  0.80167  0.85004  1.0000
  H   H720      1.0  0.85865  0.66350  0.81062  1.0000
  C   C413      1.0  0.57878  0.64543  0.81240  1.0000
  N   N23       1.0  0.84477  0.73117  0.83630  1.0000
  H   H721      1.0  0.83773  0.73123  0.92225  1.0000
  C   C414      1.0  0.81507  0.68564  0.82694  1.0000
  C   C415      1.0  0.50039  0.57456  0.72845  1.0000
  H   H722      1.0  0.60024  0.55172  0.87919  1.0000
  H   H723      1.0  0.73378  0.82222  0.85804  1.0000
  C   C416      1.0  0.77706  0.87598  0.82231  1.0000
  H   H724      1.0  0.81025  0.60442  0.76773  1.0000
  H   H725      1.0  0.80153  0.75910  0.78442  1.0000
  N   N24       1.0  0.56554  0.62623  0.77058  1.0000
  H   H726      1.0  0.64449  0.76290  0.71493  1.0000
  H   H727      1.0  0.93660  0.75628  0.92433  1.0000
  C   C417      1.0  0.82296  0.65240  0.95452  1.0000
  C   C418      1.0  0.80317  0.85483  0.81533  1.0000
  H   H728      1.0  0.76450  0.74783  0.91656  1.0000
  H   H729      1.0  0.79238  0.74071  0.84806  1.0000
  H   H730      1.0  0.67564  0.81861  0.82259  1.0000
  H   H731      1.0  0.82211  0.85792  0.84258  1.0000
  H   H732      1.0  0.52457  0.50623  0.94578  1.0000
  H   H733      1.0  0.51368  0.56651  0.79042  1.0000
  C   C419      1.0  0.82399  0.75210  0.76899  1.0000
  S   S94       1.0  0.67327  0.65174  0.97470  1.0000
  H   H734      1.0  0.60802  0.58614  0.81065  1.0000
  H   H735      1.0  0.58632  0.59906  0.72391  1.0000
  H   H736      1.0  0.64279  0.87642  0.77294  1.0000
  H   H737      1.0  0.78611  0.69475  0.90378  1.0000
  C   C420      1.0  0.62288  0.84906  0.79244  1.0000
  H   H738      1.0  0.81641  0.78409  0.93515  1.0000
  H   H739      1.0  0.61724  0.81995  0.77681  1.0000
  H   H740      1.0  0.59248  0.84784  0.79681  1.0000
  H   H741      1.0  0.80632  0.66682  0.85522  1.0000
  C   C421      1.0  0.60591  0.55271  0.91226  1.0000
  H   H742      1.0  0.88088  0.75037  0.78073  1.0000
  H   H743      1.0  0.59084  0.51170  0.96296  1.0000
  H   H744      1.0  0.84099  0.68093  0.76799  1.0000
  C   C422      1.0  0.79778  0.61911  0.78872  1.0000
  C   C423      1.0  0.49915  0.95938  0.70830  1.0000
  C   C424      1.0  0.72293  0.84335  0.70209  1.0000
  H   H745      1.0  0.80665  0.71984  0.75664  1.0000
  H   H746      1.0  0.72201  0.78701  0.68161  1.0000
  H   H747      1.0  0.54658  0.66925  0.74792  1.0000
  C   C425      1.0  0.71910  0.81370  0.67286  1.0000
  H   H748      1.0  0.62625  0.63439  0.75583  1.0000
  C   C426      1.0  0.59297  0.60921  0.75606  1.0000
  H   H749      1.0  0.55961  0.54770  0.78698  1.0000
  C   C427      1.0  0.57067  0.66017  0.74158  1.0000
  H   H750      1.0  0.56536  0.64840  0.70977  1.0000
  C   C428      1.0  0.76351  0.98893  0.84554  1.0000
  H   H751      1.0  0.61136  0.64366  0.88995  1.0000
  H   H752      1.0  0.64741  0.57771  0.75334  1.0000
  C   C429      1.0  0.52008  0.50082  0.67031  1.0000
  C   C430      1.0  0.79493  0.65826  0.97892  1.0000
  H   H753      1.0  0.58321  0.55324  0.66448  1.0000
  H   H754      1.0  0.52027  0.56587  0.71075  1.0000
  C   C431      1.0  0.61384  0.70105  0.74171  1.0000
  H   H755      1.0  0.76268  0.64522  0.96975  1.0000
  C   C432      1.0  0.61393  0.73353  0.71300  1.0000
  H   H756      1.0  0.55780  0.58668  0.84739  1.0000
  H   H757      1.0  0.61495  0.52957  0.77977  1.0000
  H   H758      1.0  0.96586  0.76611  0.87776  1.0000
  H   H759      1.0  0.57992  0.66860  0.89237  1.0000
  S   S95       1.0  0.67268  0.96829  0.66442  1.0000
  H   H760      1.0  0.59574  0.57319  0.92711  1.0000
  H   H761      1.0  0.60917  0.72206  0.68121  1.0000
  H   H762      1.0  0.56150  0.61802  0.91508  1.0000
  Fe  Fe48      1.0  0.64738  0.99614  0.70925  1.0000
  H   H763      1.0  0.50098  0.60622  0.78353  1.0000
  H   H764      1.0  0.79445  0.99847  0.85923  1.0000
  H   H765      1.0  0.52439  0.60874  0.85150  1.0000
  S   S96       1.0  0.68532  0.99201  0.76065  1.0000
  H   H766      1.0  0.66368  0.79874  0.97387  1.0000
  H   H767      1.0  0.66678  0.84879  0.98276  1.0000
  H   H768      1.0  0.74456  0.99575  0.86709  1.0000
