data_image0
_chemical_formula_structural       Fe2SCFeHSC2H2SFeCSHSC7H2SH2C3H9C2H5CHCHCHNH2SHCH10FeH3CH3CNC8HSH2CH3CFeC2H4CHSH4C2H5C2H2FeSFeS2HC2HCHS2C3H4CH3C2H2C6H4CH6CSH6CH4SH3CHCH3C2H4SHC2FeNCHCH2C2HCHCFeS2CFeHSFeS2C2H4C6H5FeH2C2H2CSH2SCH3CH2C3H3C2HCH2SH5CH4CHCH3CSHFeS2HFeCHC4H4C2H3CH4CHSC4H3CSH3CH3CH5CH3NFeCH2CHC2H5CHCHSHC3HCSH2CH2CH2NC3H2CH3CHC2HCH6CHFeS2FeS2FeHSHCH3CH4CH3C3H3CH2SH4CHC2H6C2HCH10CH2CH6C2HCH3CNHNC3HSC2H4C2HC3HC2H3CH4CHC2HCH2CH3CFeH6CH4FeS2HSH2C7H4C5H3CH2SCH3CHCH4CH4CHC2H2NHFeHCSHCH3NC4HC3H6CH4CHCH6CH3CH2CH2CHSHC2H2CHSC2H7CH2FeS2H2CSC4H3CSH8C2HNC5HC3HFeH11CH6SCHC3H3C2HSH2C2H2CHCH2C3NH4SCHCH8SFeHCHC2H4FeS2FeS2FeH2SHCH2C2H2C5H4CFeH4SHCH8CHC2H9CHC2SH2CH2C2H2CH5C2H2NC5H4CHCH3NHCH3C3HCH3C2H3C2H2NHC3HCHCH6SHFeS2CH5NSH4CH2C6H4C2H4CHCH3C4H2CH2CHSH7CNC8HC3H18CH5SNHCHCH4CH3FeC2HSHCH3C4HCH2FeCHCHFeSH3SFeS2HSFeHSHSFeHSCHC2HCSH2C6H5C4H2CH3C7H8NCH3CH6FeHNFeH3C3H8SHCHCHC2H6CHFeHSFeS2H2NSCHSC6H5C2H2CHCH3NC3HCH13CHCH2CH2SCSH2CFeCH3CHC3H2C2H2CHC2HCFeH2C2SHSH3NFe2SFeHSFeS2H2S2C6H4SC2NC6FeC3H23SH3CH2CHCH2C2H3NFeC2HCSHCH3CHCH2C2H2CH6CH3CH
_chemical_formula_sum              "Fe48 S96 C432 H768 N24"
_cell_length_a       28.9497
_cell_length_b       28.8996
_cell_length_c       33.4314
_cell_angle_alpha    89.9773
_cell_angle_beta     90.0215
_cell_angle_gamma    120.107

_space_group_name_H-M_alt    "P 1"
_space_group_IT_number       1

loop_
  _space_group_symop_operation_xyz
  'x, y, z'

loop_
  _atom_site_type_symbol
  _atom_site_label
  _atom_site_symmetry_multiplicity
  _atom_site_fract_x
  _atom_site_fract_y
  _atom_site_fract_z
  _atom_site_occupancy
  Fe  Fe1       1.0  0.42383  0.27752  0.02510  1.0000
  Fe  Fe2       1.0  0.09734  0.36464  0.28358  1.0000
  S   S1        1.0  0.16988  0.36576  0.25868  1.0000
  C   C1        1.0  0.26870  0.23637  0.32688  1.0000
  Fe  Fe3       1.0  0.17134  0.32615  0.31587  1.0000
  H   H1        1.0  0.11113  0.45328  0.19793  1.0000
  S   S2        1.0  0.01873  0.34156  0.25265  1.0000
  C   C2        1.0  0.00520  0.47768  0.13404  1.0000
  C   C3        1.0  0.13433  0.49073  0.18027  1.0000
  H   H2        1.0  0.37000  0.38812  0.19148  1.0000
  H   H3        1.0  0.10004  0.21175  0.16981  1.0000
  S   S3        1.0  0.09450  0.31778  0.33819  1.0000
  Fe  Fe4       1.0  0.48850  0.20491  0.28509  1.0000
  C   C4        1.0  0.45889  0.08014  0.04447  1.0000
  S   S4        1.0  0.22274  0.40198  0.34952  1.0000
  H   H4        1.0  0.00646  0.48034  0.28988  1.0000
  S   S5        1.0  0.41234  0.28661  0.09104  1.0000
  C   C5        1.0  0.27640  0.26750  0.07896  1.0000
  C   C6        1.0  0.48616  0.22829  0.18543  1.0000
  C   C7        1.0  0.39444  0.01946  0.09619  1.0000
  C   C8        1.0  0.36179  0.30464  0.33469  1.0000
  C   C9        1.0  0.44302  0.26590  0.12680  1.0000
  C   C10       1.0  0.42677  0.26110  0.16676  1.0000
  C   C11       1.0  0.44792  0.24208  0.19601  1.0000
  H   H5        1.0  0.39686  0.27111  0.17486  1.0000
  H   H6        1.0  0.43390  0.23709  0.22657  1.0000
  S   S6        1.0  0.18733  0.25744  0.31619  1.0000
  H   H7        1.0  0.28920  0.23180  0.13083  1.0000
  H   H8        1.0  0.26665  0.23162  0.06070  1.0000
  C   C12       1.0  0.37383  0.10682  0.12073  1.0000
  C   C13       1.0  0.03524  0.33177  0.13238  1.0000
  C   C14       1.0  0.04661  0.33917  0.17364  1.0000
  H   H9        1.0  0.06717  0.34190  0.11121  1.0000
  H   H10       1.0  0.08699  0.35480  0.18418  1.0000
  H   H11       1.0  0.34122  0.42800  0.26768  1.0000
  H   H12       1.0  0.27513  0.37140  0.19502  1.0000
  H   H13       1.0  0.32469  0.18719  0.20875  1.0000
  H   H14       1.0  0.19058  0.32806  0.18075  1.0000
  H   H15       1.0  0.45284  0.35732  0.21558  1.0000
  H   H16       1.0  0.22081  0.45110  0.13993  1.0000
  H   H17       1.0  0.35279  0.45790  0.21855  1.0000
  C   C15       1.0  0.32239  0.25071  0.33246  1.0000
  C   C16       1.0  0.29093  0.17698  0.22945  1.0000
  H   H18       1.0  0.22308  0.22330  0.12648  1.0000
  H   H19       1.0  0.31896  0.29783  0.07374  1.0000
  H   H20       1.0  0.38951  0.01518  0.12929  1.0000
  H   H21       1.0  0.23813  0.19458  0.32554  1.0000
  H   H22       1.0  0.18819  0.22036  0.18520  1.0000
  C   C17       1.0  0.33653  0.12862  0.11167  1.0000
  H   H23       1.0  0.30339  0.10061  0.09193  1.0000
  C   C18       1.0  0.36271  0.43374  0.23894  1.0000
  H   H24       1.0  0.36150  0.35917  0.24043  1.0000
  C   C19       1.0  0.40502  0.10744  0.08266  1.0000
  H   H25       1.0  0.27432  0.32977  0.13524  1.0000
  N   N1        1.0  0.43469  0.07683  0.08526  1.0000
  H   H26       1.0  0.26603  0.13273  0.23109  1.0000
  H   H27       1.0  0.30696  0.19233  0.25974  1.0000
  S   S7        1.0  0.40858  0.17992  0.31280  1.0000
  H   H28       1.0  0.19362  0.25860  0.22773  1.0000
  C   C20       1.0  0.25715  0.20048  0.21432  1.0000
  H   H29       1.0  0.43246  0.15029  0.07582  1.0000
  H   H30       1.0  0.24298  0.18436  0.18401  1.0000
  H   H31       1.0  0.22162  0.18558  0.23414  1.0000
  H   H32       1.0  0.32960  0.32314  0.14869  1.0000
  H   H33       1.0  0.18353  0.28529  0.13932  1.0000
  H   H34       1.0  0.47472  0.05249  0.04170  1.0000
  H   H35       1.0  0.07080  0.47101  0.24786  1.0000
  H   H36       1.0  0.10722  0.25534  0.21116  1.0000
  H   H37       1.0  0.48881  0.03819  0.13967  1.0000
  H   H38       1.0  0.49883  0.16870  0.03822  1.0000
  Fe  Fe5       1.0  0.45055  0.25970  0.34370  1.0000
  H   H39       1.0  0.34897  0.06604  0.13314  1.0000
  H   H40       1.0  0.40625  0.45633  0.24512  1.0000
  H   H41       1.0  0.33041  0.27650  0.20528  1.0000
  C   C21       1.0  0.11653  0.25408  0.17906  1.0000
  H   H42       1.0  0.09647  0.27136  0.16119  1.0000
  H   H43       1.0  0.26656  0.34052  0.24248  1.0000
  H   H44       1.0  0.29248  0.27264  0.24770  1.0000
  C   C22       1.0  0.00571  0.32731  0.20107  1.0000
  N   N2        1.0  0.26614  0.29207  0.19280  1.0000
  C   C23       1.0  0.20590  0.26219  0.19572  1.0000
  C   C24       1.0  0.28894  0.26259  0.21534  1.0000
  C   C25       1.0  0.28619  0.34586  0.21277  1.0000
  C   C26       1.0  0.28525  0.30202  0.14998  1.0000
  C   C27       1.0  0.26630  0.25204  0.12319  1.0000
  C   C28       1.0  0.17681  0.28622  0.17192  1.0000
  C   C29       1.0  0.34753  0.37983  0.21991  1.0000
  C   C30       1.0  0.34773  0.34415  0.33018  1.0000
  H   H45       1.0  0.25095  0.28391  0.06876  1.0000
  S   S8        1.0  0.14380  0.44441  0.31443  1.0000
  H   H46       1.0  0.17885  0.42453  0.18333  1.0000
  H   H47       1.0  0.45850  0.10120  0.14672  1.0000
  C   C31       1.0  0.16310  0.47760  0.14676  1.0000
  H   H48       1.0  0.33307  0.22005  0.33595  1.0000
  H   H49       1.0  0.40206  0.13243  0.14433  1.0000
  H   H50       1.0  0.37623  0.09197  0.05730  1.0000
  C   C32       1.0  0.47682  0.10239  0.11718  1.0000
  Fe  Fe6       1.0  0.21624  0.44157  0.29390  1.0000
  C   C33       1.0  0.48240  0.25355  0.11636  1.0000
  C   C34       1.0  0.25453  0.27596  0.32318  1.0000
  H   H51       1.0  0.35844  0.16810  0.09666  1.0000
  H   H52       1.0  0.31927  0.13342  0.13996  1.0000
  H   H53       1.0  0.49591  0.25792  0.08573  1.0000
  H   H54       1.0  0.06277  0.45464  0.11780  1.0000
  C   C35       1.0  0.29428  0.32983  0.32433  1.0000
  H   H55       1.0  0.25364  0.02852  0.04162  1.0000
  S   S9        1.0  0.42834  0.32409  0.34542  1.0000
  H   H56       1.0  0.28405  0.36058  0.32035  1.0000
  H   H57       1.0  0.13365  0.44441  0.12775  1.0000
  H   H58       1.0  0.01095  0.45468  0.22062  1.0000
  H   H59       1.0  0.03251  0.42941  0.16449  1.0000
  C   C36       1.0  0.20106  0.46064  0.16443  1.0000
  C   C37       1.0  0.05041  0.46622  0.14583  1.0000
  H   H60       1.0  0.37820  0.38597  0.33159  1.0000
  H   H61       1.0  0.49044  0.42752  0.20371  1.0000
  H   H62       1.0  0.48853  0.40821  0.27714  1.0000
  H   H63       1.0  0.35404  0.00817  0.08446  1.0000
  H   H64       1.0  0.23238  0.49336  0.18286  1.0000
  C   C38       1.0  0.49352  0.39304  0.21506  1.0000
  C   C39       1.0  0.04765  0.48791  0.23397  1.0000
  H   H65       1.0  0.42727  0.06686  0.02105  1.0000
  H   H66       1.0  0.48994  0.06045  0.35364  1.0000
  Fe  Fe7       1.0  0.43804  0.15207  0.36525  1.0000
  S   S10       1.0  0.12420  0.40918  0.43041  1.0000
  Fe  Fe8       1.0  0.25333  0.43490  0.63492  1.0000
  S   S11       1.0  0.21080  0.47816  0.65327  1.0000
  S   S12       1.0  0.28101  0.43542  0.57186  1.0000
  H   H67       1.0  0.32768  0.18298  0.42069  1.0000
  C   C40       1.0  0.34155  0.35128  0.47055  1.0000
  C   C41       1.0  0.42084  0.43100  0.43782  1.0000
  H   H68       1.0  0.37910  0.35241  0.41284  1.0000
  C   C42       1.0  0.26185  0.31094  0.53757  1.0000
  H   H69       1.0  0.41304  0.45927  0.45501  1.0000
  S   S13       1.0  0.38346  0.07009  0.39254  1.0000
  S   S14       1.0  0.47440  0.23062  0.39801  1.0000
  C   C43       1.0  0.38504  0.05377  0.44344  1.0000
  C   C44       1.0  0.41893  0.09207  0.47114  1.0000
  C   C45       1.0  0.41927  0.07744  0.51129  1.0000
  H   H70       1.0  0.14150  0.31313  0.52773  1.0000
  H   H71       1.0  0.44478  0.13295  0.46163  1.0000
  H   H72       1.0  0.44560  0.10732  0.53252  1.0000
  H   H73       1.0  0.12700  0.27793  0.57469  1.0000
  C   C46       1.0  0.27207  0.19998  0.45296  1.0000
  H   H74       1.0  0.30025  0.26571  0.41070  1.0000
  H   H75       1.0  0.34686  0.27204  0.44764  1.0000
  H   H76       1.0  0.26694  0.27281  0.59247  1.0000
  C   C47       1.0  0.30424  0.26075  0.44328  1.0000
  C   C48       1.0  0.23856  0.28226  0.57719  1.0000
  H   H77       1.0  0.23821  0.23573  0.50893  1.0000
  H   H78       1.0  0.11610  0.41797  0.51542  1.0000
  C   C49       1.0  0.16897  0.41897  0.46957  1.0000
  C   C50       1.0  0.21866  0.42388  0.46188  1.0000
  C   C51       1.0  0.25290  0.42976  0.49361  1.0000
  C   C52       1.0  0.23754  0.43016  0.53321  1.0000
  C   C53       1.0  0.18821  0.42612  0.54107  1.0000
  C   C54       1.0  0.15422  0.42105  0.50924  1.0000
  H   H79       1.0  0.23082  0.42321  0.43156  1.0000
  H   H80       1.0  0.29137  0.43378  0.48753  1.0000
  H   H81       1.0  0.17609  0.42651  0.57159  1.0000
  H   H82       1.0  0.43907  0.44968  0.40866  1.0000
  C   C55       1.0  0.24975  0.30542  0.44573  1.0000
  H   H83       1.0  0.24733  0.33923  0.45921  1.0000
  H   H84       1.0  0.30589  0.27085  0.52361  1.0000
  H   H85       1.0  0.23127  0.30871  0.59711  1.0000
  H   H86       1.0  0.10651  0.24078  0.52844  1.0000
  H   H87       1.0  0.20002  0.24476  0.57225  1.0000
  H   H88       1.0  0.06490  0.31006  0.56584  1.0000
  C   C56       1.0  0.05832  0.27575  0.54678  1.0000
  S   S15       1.0  0.19650  0.35881  0.66628  1.0000
  H   H89       1.0  0.26446  0.12501  0.43279  1.0000
  H   H90       1.0  0.15087  0.30208  0.44719  1.0000
  H   H91       1.0  0.22848  0.18429  0.45280  1.0000
  H   H92       1.0  0.06474  0.32187  0.49392  1.0000
  H   H93       1.0  0.03193  0.28006  0.42232  1.0000
  H   H94       1.0  0.11314  0.23722  0.42403  1.0000
  C   C57       1.0  0.38605  0.02446  0.52413  1.0000
  H   H95       1.0  0.23266  0.32055  0.52415  1.0000
  H   H96       1.0  0.16648  0.29139  0.39686  1.0000
  H   H97       1.0  0.33351  0.38044  0.48618  1.0000
  H   H98       1.0  0.44973  0.42363  0.45451  1.0000
  S   S16       1.0  0.39071  0.00753  0.57434  1.0000
  H   H99       1.0  0.28345  0.19255  0.48303  1.0000
  H   H100      1.0  0.17732  0.23845  0.47317  1.0000
  H   H101      1.0  0.34264  0.38785  0.41229  1.0000
  C   C58       1.0  0.19256  0.25666  0.44346  1.0000
  H   H102      1.0  0.04533  0.25424  0.48442  1.0000
  C   C59       1.0  0.15352  0.27302  0.42692  1.0000
  H   H103      1.0  0.26808  0.16857  0.39303  1.0000
  H   H104      1.0  0.37162  0.34776  0.48920  1.0000
  H   H105      1.0  0.19188  0.22626  0.42282  1.0000
  C   C60       1.0  0.28400  0.16742  0.42297  1.0000
  C   C61       1.0  0.36892  0.37843  0.43051  1.0000
  H   H106      1.0  0.02927  0.23804  0.56190  1.0000
  H   H107      1.0  0.29895  0.34875  0.54488  1.0000
  H   H108      1.0  0.33946  0.48951  0.43089  1.0000
  H   H109      1.0  0.05046  0.46874  0.67213  1.0000
  S   S17       1.0  0.31247  0.46662  0.68554  1.0000
  H   H110      1.0  0.26184  0.31769  0.41414  1.0000
  C   C62       1.0  0.11162  0.27697  0.54407  1.0000
  C   C63       1.0  0.48104  0.02773  0.37507  1.0000
  Fe  Fe9       1.0  0.14593  0.39737  0.36749  1.0000
  N   N3        1.0  0.29116  0.29736  0.46711  1.0000
  C   C64       1.0  0.27415  0.27615  0.50909  1.0000
  H   H111      1.0  0.49983  0.08036  0.42546  1.0000
  C   C65       1.0  0.03800  0.28035  0.50478  1.0000
  H   H112      1.0  0.01600  0.19702  0.64393  1.0000
  H   H113      1.0  0.43723  0.00512  0.38032  1.0000
  C   C66       1.0  0.04255  0.27810  0.66264  1.0000
  C   C67       1.0  0.02789  0.31692  0.66866  1.0000
  H   H114      1.0  0.08198  0.28621  0.67091  1.0000
  C   C68       1.0  0.00511  0.22754  0.64753  1.0000
  H   H115      1.0  0.48939  0.02354  0.64795  1.0000
  C   C69       1.0  0.49581  0.00627  0.44585  1.0000
  Fe  Fe10      1.0  0.25215  0.39359  0.71899  1.0000
  S   S18       1.0  0.20887  0.43323  0.74456  1.0000
  S   S19       1.0  0.27032  0.33539  0.75114  1.0000
  C   C70       1.0  0.14035  0.29055  0.78760  1.0000
  Fe  Fe11      1.0  0.41166  0.31822  0.94371  1.0000
  H   H116      1.0  0.23694  0.47298  0.88060  1.0000
  S   S20       1.0  0.39287  0.37913  0.91700  1.0000
  Fe  Fe12      1.0  0.39597  0.20621  0.95154  1.0000
  S   S21       1.0  0.36276  0.12371  0.92521  1.0000
  S   S22       1.0  0.35574  0.24693  0.98100  1.0000
  C   C71       1.0  0.33608  0.07207  0.96073  1.0000
  C   C72       1.0  0.04240  0.26159  0.77798  1.0000
  H   H117      1.0  0.43212  0.39717  0.80281  1.0000
  H   H118      1.0  0.34601  0.01508  0.86468  1.0000
  H   H119      1.0  0.47356  0.48297  0.81993  1.0000
  H   H120      1.0  0.40949  0.04142  0.78601  1.0000
  C   C73       1.0  0.30316  0.34829  0.79784  1.0000
  C   C74       1.0  0.30930  0.30776  0.81582  1.0000
  C   C75       1.0  0.33592  0.31647  0.85266  1.0000
  C   C76       1.0  0.35694  0.36599  0.87170  1.0000
  C   C77       1.0  0.35041  0.40648  0.85397  1.0000
  C   C78       1.0  0.32360  0.39771  0.81713  1.0000
  H   H121      1.0  0.29353  0.26944  0.80109  1.0000
  H   H122      1.0  0.34046  0.28496  0.86617  1.0000
  H   H123      1.0  0.36641  0.44484  0.86865  1.0000
  H   H124      1.0  0.31903  0.42915  0.80353  1.0000
  H   H125      1.0  0.41040  0.31472  0.76871  1.0000
  Fe  Fe13      1.0  0.15854  0.40469  0.68918  1.0000
  H   H126      1.0  0.08827  0.28782  0.83447  1.0000
  H   H127      1.0  0.10664  0.34034  0.79802  1.0000
  C   C79       1.0  0.19489  0.01175  0.85604  1.0000
  C   C80       1.0  0.21808  0.47895  0.85363  1.0000
  H   H128      1.0  0.14805  0.30039  0.75527  1.0000
  H   H129      1.0  0.03257  0.33607  0.82145  1.0000
  C   C81       1.0  0.27926  0.02866  0.01802  1.0000
  S   S23       1.0  0.45816  0.22979  0.99917  1.0000
  H   H130      1.0  0.48639  0.40860  0.77025  1.0000
  H   H131      1.0  0.35542  0.06620  0.82974  1.0000
  S   S24       1.0  0.47686  0.35155  0.98994  1.0000
  C   C82       1.0  0.48891  0.49688  0.98284  1.0000
  H   H132      1.0  0.04954  0.27752  0.74684  1.0000
  H   H133      1.0  0.48570  0.13133  0.96935  1.0000
  H   H134      1.0  0.17718  0.31797  0.80447  1.0000
  C   C83       1.0  0.49890  0.48965  0.84677  1.0000
  H   H135      1.0  0.26490  0.05286  0.81830  1.0000
  H   H136      1.0  0.46057  0.46277  0.00180  1.0000
  C   C84       1.0  0.20352  0.06117  0.87913  1.0000
  C   C85       1.0  0.44108  0.32883  0.79269  1.0000
  C   C86       1.0  0.09415  0.29747  0.80208  1.0000
  H   H137      1.0  0.29834  0.10642  0.99569  1.0000
  H   H138      1.0  0.16452  0.05527  0.88957  1.0000
  H   H139      1.0  0.42167  0.30701  0.82068  1.0000
  C   C87       1.0  0.46543  0.38913  0.79840  1.0000
  C   C88       1.0  0.30459  0.07273  0.99214  1.0000
  H   H140      1.0  0.23821  0.47516  0.82660  1.0000
  C   C89       1.0  0.04786  0.49521  0.69523  1.0000
  H   H141      1.0  0.13165  0.24893  0.79253  1.0000
  H   H142      1.0  0.36921  0.02818  0.93255  1.0000
  S   S25       1.0  0.44662  0.27530  0.91082  1.0000
  H   H143      1.0  0.47927  0.39095  0.86223  1.0000
  H   H144      1.0  0.22272  0.09726  0.85974  1.0000
  H   H145      1.0  0.47080  0.46678  0.87144  1.0000
  H   H146      1.0  0.22925  0.06799  0.90576  1.0000
  H   H147      1.0  0.47839  0.48535  0.95103  1.0000
  C   C90       1.0  0.34400  0.02832  0.95630  1.0000
  H   H148      1.0  0.03857  0.22137  0.77585  1.0000
  H   H149      1.0  0.17542  0.44704  0.85286  1.0000
  H   H150      1.0  0.27698  0.03498  0.86595  1.0000
  H   H151      1.0  0.16747  0.00568  0.83083  1.0000
  C   C91       1.0  0.35071  0.02572  0.83267  1.0000
  H   H152      1.0  0.47236  0.31926  0.78393  1.0000
  C   C92       1.0  0.24871  0.01942  0.84038  1.0000
  H   H153      1.0  0.04138  0.47306  0.72373  1.0000
  H   H154      1.0  0.01737  0.33548  0.76970  1.0000
  H   H155      1.0  0.43665  0.06026  0.83583  1.0000
  C   C93       1.0  0.40257  0.02965  0.81805  1.0000
  S   S26       1.0  0.07105  0.37843  0.69157  1.0000
  H   H156      1.0  0.01971  0.51064  0.11187  1.0000
  Fe  Fe14      1.0  0.16996  0.73167  0.04335  1.0000
  S   S27       1.0  0.09220  0.67047  0.07273  1.0000
  S   S28       1.0  0.24102  0.79613  0.07538  1.0000
  H   H157      1.0  0.47378  0.83436  0.21792  1.0000
  Fe  Fe15      1.0  0.24388  0.85036  0.02619  1.0000
  C   C94       1.0  0.08444  0.66659  0.12518  1.0000
  H   H158      1.0  0.06531  0.54487  0.28255  1.0000
  C   C95       1.0  0.02565  0.75951  0.14544  1.0000
  C   C96       1.0  0.06972  0.65755  0.20884  1.0000
  C   C97       1.0  0.11981  0.69317  0.19243  1.0000
  C   C98       1.0  0.12709  0.69799  0.15075  1.0000
  H   H159      1.0  0.15309  0.71739  0.21203  1.0000
  H   H160      1.0  0.16582  0.72576  0.13848  1.0000
  H   H161      1.0  0.43659  0.73867  0.06649  1.0000
  H   H162      1.0  0.43928  0.74842  0.25396  1.0000
  C   C99       1.0  0.33231  0.55649  0.29965  1.0000
  C   C100      1.0  0.08190  0.53108  0.20241  1.0000
  H   H163      1.0  0.39701  0.96968  0.04802  1.0000
  H   H164      1.0  0.40430  0.67279  0.13656  1.0000
  H   H165      1.0  0.08078  0.83122  0.26935  1.0000
  C   C101      1.0  0.38624  0.57157  0.30306  1.0000
  H   H166      1.0  0.00474  0.52714  0.25507  1.0000
  H   H167      1.0  0.33452  0.65840  0.17221  1.0000
  H   H168      1.0  0.40105  0.54867  0.28782  1.0000
  H   H169      1.0  0.04235  0.73430  0.15580  1.0000
  C   C102      1.0  0.12619  0.55697  0.13716  1.0000
  H   H170      1.0  0.11775  0.56222  0.21849  1.0000
  S   S29       1.0  0.06236  0.65234  0.26125  1.0000
  C   C103      1.0  0.18017  0.60479  0.15143  1.0000
  C   C104      1.0  0.43250  0.74455  0.03505  1.0000
  C   C105      1.0  0.20939  0.64353  0.11704  1.0000
  C   C106      1.0  0.42895  0.65832  0.15164  1.0000
  H   H171      1.0  0.10042  0.57422  0.12982  1.0000
  H   H172      1.0  0.13237  0.54233  0.10797  1.0000
  H   H173      1.0  0.36619  0.60780  0.21374  1.0000
  C   C107      1.0  0.47688  0.76367  0.23676  1.0000
  S   S30       1.0  0.25258  0.92927  0.04520  1.0000
  H   H174      1.0  0.17308  0.62724  0.17529  1.0000
  H   H175      1.0  0.20748  0.59176  0.16337  1.0000
  H   H176      1.0  0.37352  0.88941  0.08698  1.0000
  C   C108      1.0  0.47902  0.67730  0.12478  1.0000
  H   H177      1.0  0.18361  0.65720  0.10291  1.0000
  H   H178      1.0  0.24597  0.67919  0.12846  1.0000
  H   H179      1.0  0.22134  0.62400  0.09388  1.0000
  C   C109      1.0  0.03442  0.63049  0.14163  1.0000
  H   H180      1.0  0.36492  0.71393  0.20647  1.0000
  H   H181      1.0  0.50061  0.66268  0.06596  1.0000
  H   H182      1.0  0.27086  0.57296  0.31839  1.0000
  H   H183      1.0  0.43257  0.64858  0.06962  1.0000
  H   H184      1.0  0.41984  0.57361  0.21832  1.0000
  C   C110      1.0  0.49873  0.58930  0.23328  1.0000
  H   H185      1.0  0.27702  0.59952  0.22762  1.0000
  H   H186      1.0  0.45170  0.60328  0.09142  1.0000
  H   H187      1.0  0.07679  0.77237  0.29148  1.0000
  N   N4        1.0  0.43979  0.67715  0.19448  1.0000
  Fe  Fe16      1.0  0.28982  0.77731  0.03344  1.0000
  C   C111      1.0  0.05395  0.78786  0.27506  1.0000
  H   H188      1.0  0.40440  0.61388  0.15039  1.0000
  H   H189      1.0  0.30742  0.65614  0.26136  1.0000
  C   C112      1.0  0.31257  0.58455  0.32089  1.0000
  H   H190      1.0  0.06873  0.76385  0.21820  1.0000
  C   C113      1.0  0.29709  0.64383  0.22964  1.0000
  C   C114      1.0  0.38739  0.65211  0.21680  1.0000
  H   H191      1.0  0.44473  0.75154  0.17616  1.0000
  H   H192      1.0  0.26877  0.65670  0.21940  1.0000
  H   H193      1.0  0.46221  0.62683  0.32928  1.0000
  H   H194      1.0  0.47635  0.66737  0.24780  1.0000
  H   H195      1.0  0.37641  0.92304  0.13317  1.0000
  C   C115      1.0  0.36775  0.92120  0.10066  1.0000
  H   H196      1.0  0.09138  0.83450  0.17066  1.0000
  C   C116      1.0  0.47579  0.66067  0.21496  1.0000
  H   H197      1.0  0.32540  0.91022  0.09655  1.0000
  S   S31       1.0  0.35854  0.77093  0.05877  1.0000
  H   H198      1.0  0.09967  0.80435  0.08363  1.0000
  C   C117      1.0  0.40197  0.64609  0.34567  1.0000
  C   C118      1.0  0.02698  0.62615  0.18333  1.0000
  C   C119      1.0  0.34730  0.67003  0.20365  1.0000
  H   H199      1.0  0.39419  0.65930  0.24956  1.0000
  C   C120      1.0  0.46148  0.60168  0.20896  1.0000
  S   S32       1.0  0.29156  0.50617  0.26566  1.0000
  H   H200      1.0  0.47789  0.95651  0.02432  1.0000
  H   H201      1.0  0.16497  0.51924  0.20160  1.0000
  C   C121      1.0  0.11605  0.82044  0.11377  1.0000
  H   H202      1.0  0.05864  0.84398  0.12822  1.0000
  H   H203      1.0  0.13347  0.79713  0.12658  1.0000
  C   C122      1.0  0.46707  0.73738  0.19482  1.0000
  H   H204      1.0  0.46567  0.59347  0.17717  1.0000
  H   H205      1.0  0.14860  0.86262  0.11029  1.0000
  N   N5        1.0  0.09828  0.51131  0.16640  1.0000
  C   C123      1.0  0.07256  0.81783  0.14129  1.0000
  C   C124      1.0  0.40486  0.97488  0.08072  1.0000
  C   C125      1.0  0.46483  0.64596  0.08557  1.0000
  H   H206      1.0  0.02196  0.82054  0.21061  1.0000
  H   H207      1.0  0.01127  0.74536  0.11453  1.0000
  C   C126      1.0  0.42094  0.61603  0.32629  1.0000
  H   H208      1.0  0.06015  0.55187  0.19310  1.0000
  H   H209      1.0  0.49372  0.85343  0.03708  1.0000
  H   H210      1.0  0.44636  0.98429  0.08626  1.0000
  C   C127      1.0  0.03010  0.51172  0.26737  1.0000
  H   H211      1.0  0.47430  0.52647  0.34347  1.0000
  C   C128      1.0  0.34747  0.62954  0.34366  1.0000
  C   C129      1.0  0.03349  0.75747  0.23569  1.0000
  H   H212      1.0  0.18738  0.51267  0.12734  1.0000
  C   C130      1.0  0.50165  0.82427  0.23322  1.0000
  H   H213      1.0  0.49658  0.72041  0.11740  1.0000
  H   H214      1.0  0.48798  0.54706  0.22852  1.0000
  H   H215      1.0  0.00916  0.71440  0.24318  1.0000
  H   H216      1.0  0.02005  0.78212  0.29415  1.0000
  H   H217      1.0  0.49530  0.59550  0.26565  1.0000
  H   H218      1.0  0.48891  0.81666  0.10786  1.0000
  C   C131      1.0  0.39593  0.75992  0.02269  1.0000
  H   H219      1.0  0.20842  0.58793  0.55261  1.0000
  Fe  Fe17      1.0  0.30396  0.81129  0.61470  1.0000
  S   S33       1.0  0.36819  0.88844  0.63984  1.0000
  S   S34       1.0  0.32181  0.74812  0.59307  1.0000
  Fe  Fe18      1.0  0.21989  0.84228  0.62609  1.0000
  S   S35       1.0  0.27765  0.92233  0.65288  1.0000
  S   S36       1.0  0.13447  0.81861  0.61247  1.0000
  Fe  Fe19      1.0  0.33262  0.92783  0.60320  1.0000
  H   H220      1.0  0.11806  0.64606  0.39021  1.0000
  S   S37       1.0  0.27272  0.85104  0.57384  1.0000
  H   H221      1.0  0.42913  0.81395  0.47173  1.0000
  C   C132      1.0  0.08337  0.76581  0.64003  1.0000
  H   H222      1.0  0.29763  0.64689  0.52367  1.0000
  H   H223      1.0  0.21250  0.85371  0.42530  1.0000
  H   H224      1.0  0.12276  0.74984  0.54756  1.0000
  C   C133      1.0  0.02999  0.74983  0.63155  1.0000
  H   H225      1.0  0.18615  0.59748  0.50418  1.0000
  H   H226      1.0  0.34172  0.53898  0.52954  1.0000
  H   H227      1.0  0.02036  0.62791  0.61410  1.0000
  H   H228      1.0  0.32665  0.94516  0.50591  1.0000
  C   C134      1.0  0.24140  0.56689  0.50177  1.0000
  H   H229      1.0  0.19266  0.76377  0.44927  1.0000
  H   H230      1.0  0.40350  0.77349  0.42736  1.0000
  H   H231      1.0  0.41570  0.63597  0.51362  1.0000
  C   C135      1.0  0.31684  0.70466  0.63189  1.0000
  C   C136      1.0  0.31284  0.65564  0.62244  1.0000
  C   C137      1.0  0.30793  0.61993  0.65278  1.0000
  H   H232      1.0  0.04092  0.68678  0.40939  1.0000
  H   H233      1.0  0.31272  0.64485  0.59163  1.0000
  H   H234      1.0  0.30523  0.58234  0.64510  1.0000
  C   C138      1.0  0.02994  0.75637  0.51622  1.0000
  H   H235      1.0  0.06535  0.68572  0.54665  1.0000
  H   H236      1.0  0.04655  0.60510  0.39758  1.0000
  S   S38       1.0  0.44538  0.70438  0.37244  1.0000
  H   H237      1.0  0.04921  0.76043  0.54557  1.0000
  H   H238      1.0  0.20558  0.78867  0.50008  1.0000
  H   H239      1.0  0.48247  0.81219  0.65598  1.0000
  H   H240      1.0  0.32538  0.97092  0.43504  1.0000
  C   C139      1.0  0.49360  0.81024  0.57743  1.0000
  H   H241      1.0  0.37956  0.65824  0.54245  1.0000
  C   C140      1.0  0.08917  0.68145  0.45886  1.0000
  C   C141      1.0  0.42386  0.89164  0.54026  1.0000
  H   H242      1.0  0.22665  0.54770  0.47207  1.0000
  H   H243      1.0  0.30509  0.53964  0.47159  1.0000
  H   H244      1.0  0.07246  0.65134  0.35640  1.0000
  H   H245      1.0  0.24905  0.53954  0.51990  1.0000
  H   H246      1.0  0.44359  0.89983  0.56989  1.0000
  H   H247      1.0  0.49305  0.77586  0.59276  1.0000
  C   C142      1.0  0.37438  0.62574  0.52193  1.0000
  C   C143      1.0  0.19641  0.57136  0.52192  1.0000
  H   H248      1.0  0.17778  0.66579  0.58153  1.0000
  C   C144      1.0  0.36512  0.52785  0.41518  1.0000
  H   H249      1.0  0.13272  0.80822  0.49759  1.0000
  H   H250      1.0  0.13578  0.75181  0.67724  1.0000
  H   H251      1.0  0.39284  0.90355  0.54105  1.0000
  H   H252      1.0  0.00598  0.67561  0.49617  1.0000
  H   H253      1.0  0.05708  0.64076  0.46814  1.0000
  H   H254      1.0  0.31286  0.56763  0.56230  1.0000
  H   H255      1.0  0.28045  0.64221  0.47242  1.0000
  H   H256      1.0  0.11914  0.55942  0.66608  1.0000
  H   H257      1.0  0.11390  0.64227  0.52556  1.0000
  H   H258      1.0  0.36913  0.54304  0.60021  1.0000
  C   C145      1.0  0.10304  0.71200  0.53004  1.0000
  H   H259      1.0  0.02513  0.72430  0.45797  1.0000
  H   H260      1.0  0.02873  0.51979  0.62441  1.0000
  C   C146      1.0  0.07981  0.68896  0.41410  1.0000
  H   H261      1.0  0.11858  0.78951  0.44684  1.0000
  H   H262      1.0  0.39790  0.61452  0.60052  1.0000
  H   H263      1.0  0.04858  0.79674  0.50236  1.0000
  H   H264      1.0  0.26741  0.85680  0.45302  1.0000
  H   H265      1.0  0.46247  0.78052  0.45174  1.0000
  H   H266      1.0  0.42567  0.58370  0.56868  1.0000
  C   C147      1.0  0.31686  0.71834  0.67207  1.0000
  C   C148      1.0  0.38824  0.57950  0.58122  1.0000
  H   H267      1.0  0.44571  0.84052  0.63491  1.0000
  C   C149      1.0  0.42286  0.77699  0.45679  1.0000
  H   H268      1.0  0.11194  0.72792  0.40258  1.0000
  H   H269      1.0  0.41792  0.68149  0.45638  1.0000
  H   H270      1.0  0.04955  0.57815  0.65392  1.0000
  C   C150      1.0  0.29196  0.62280  0.49621  1.0000
  N   N6        1.0  0.09129  0.72271  0.48779  1.0000
  H   H271      1.0  0.22512  0.87802  0.47637  1.0000
  N   N7        1.0  0.34358  0.62460  0.48515  1.0000
  C   C151      1.0  0.13132  0.77898  0.47520  1.0000
  C   C152      1.0  0.18961  0.79147  0.47062  1.0000
  C   C153      1.0  0.37768  0.67595  0.46238  1.0000
  H   H272      1.0  0.40382  0.84795  0.53446  1.0000
  S   S39       1.0  0.24627  0.79595  0.66454  1.0000
  C   C154      1.0  0.33245  0.57873  0.45755  1.0000
  C   C155      1.0  0.22564  0.84848  0.45535  1.0000
  H   H273      1.0  0.40267  0.56997  0.46931  1.0000
  H   H274      1.0  0.12671  0.68005  0.45948  1.0000
  H   H275      1.0  0.45201  0.79940  0.56973  1.0000
  H   H276      1.0  0.34989  0.72829  0.48856  1.0000
  C   C156      1.0  0.01528  0.53717  0.64841  1.0000
  C   C157      1.0  0.35005  0.57441  0.54765  1.0000
  H   H277      1.0  0.17434  0.70463  0.51696  1.0000
  C   C158      1.0  0.03660  0.71735  0.48809  1.0000
  C   C159      1.0  0.38171  0.57525  0.44345  1.0000
  C   C160      1.0  0.46459  0.92232  0.50736  1.0000
  H   H278      1.0  0.17864  0.72784  0.58918  1.0000
  C   C161      1.0  0.38777  0.72846  0.48301  1.0000
  C   C162      1.0  0.15378  0.68591  0.57869  1.0000
  H   H279      1.0  0.11810  0.66506  0.59823  1.0000
  H   H280      1.0  0.31098  0.58047  0.43037  1.0000
  H   H281      1.0  0.41041  0.61156  0.42688  1.0000
  C   C163      1.0  0.13736  0.68482  0.53503  1.0000
  H   H282      1.0  0.40867  0.73451  0.51196  1.0000
  H   H283      1.0  0.35961  0.67412  0.43254  1.0000
  H   H284      1.0  0.02071  0.77087  0.60912  1.0000
  H   H285      1.0  0.40121  0.52784  0.40394  1.0000
  C   C164      1.0  0.35220  0.98610  0.49645  1.0000
  H   H286      1.0  0.44205  0.91265  0.47888  1.0000
  C   C165      1.0  0.35169  0.00077  0.45630  1.0000
  C   C166      1.0  0.07932  0.64512  0.38817  1.0000
  H   H287      1.0  0.16034  0.53101  0.52416  1.0000
  C   C167      1.0  0.09493  0.73942  0.67004  1.0000
  H   H288      1.0  0.32073  0.75645  0.67975  1.0000
  H   H289      1.0  0.48120  0.93580  0.63793  1.0000
  C   C168      1.0  0.48683  0.84981  0.64337  1.0000
  H   H290      1.0  0.33243  0.65236  0.35882  1.0000
  H   H291      1.0  0.34298  0.53075  0.38905  1.0000
  H   H292      1.0  0.45380  0.99387  0.45419  1.0000
  C   C169      1.0  0.49550  0.98337  0.51633  1.0000
  Fe  Fe20      1.0  0.30851  0.87652  0.68732  1.0000
  H   H293      1.0  0.00863  0.58062  0.57425  1.0000
  H   H294      1.0  0.49264  0.90678  0.50580  1.0000
  H   H295      1.0  0.49379  0.97119  0.43032  1.0000
  H   H296      1.0  0.46560  0.99488  0.52529  1.0000
  H   H297      1.0  0.49350  0.00069  0.36137  1.0000
  H   H298      1.0  0.32474  0.95062  0.97856  1.0000
  C   C170      1.0  0.46984  0.87889  0.70756  1.0000
  H   H299      1.0  0.22836  0.89035  0.83731  1.0000
  H   H300      1.0  0.17429  0.88086  0.92406  1.0000
  H   H301      1.0  0.13229  0.52852  0.75180  1.0000
  H   H302      1.0  0.16935  0.94275  0.79452  1.0000
  Fe  Fe21      1.0  0.22363  0.76916  0.96083  1.0000
  S   S40       1.0  0.20633  0.74543  0.89532  1.0000
  S   S41       1.0  0.29903  0.83713  0.98662  1.0000
  H   H303      1.0  0.31192  0.69329  0.73348  1.0000
  S   S42       1.0  0.34086  0.89601  0.75073  1.0000
  H   H304      1.0  0.43940  0.88729  0.01090  1.0000
  H   H305      1.0  0.16795  0.65871  0.82408  1.0000
  C   C171      1.0  0.14394  0.53745  0.71988  1.0000
  C   C172      1.0  0.24412  0.78846  0.85578  1.0000
  C   C173      1.0  0.22232  0.77824  0.81707  1.0000
  C   C174      1.0  0.25178  0.81048  0.78460  1.0000
  C   C175      1.0  0.30346  0.85328  0.79056  1.0000
  C   C176      1.0  0.32531  0.86366  0.82930  1.0000
  C   C177      1.0  0.29568  0.83158  0.86186  1.0000
  H   H306      1.0  0.18209  0.74567  0.81220  1.0000
  H   H307      1.0  0.23421  0.80248  0.75506  1.0000
  H   H308      1.0  0.36531  0.89658  0.83418  1.0000
  H   H309      1.0  0.31290  0.83978  0.89152  1.0000
  C   C178      1.0  0.22235  0.53386  0.85489  1.0000
  C   C179      1.0  0.39071  0.76756  0.98197  1.0000
  C   C180      1.0  0.42159  0.75912  0.95371  1.0000
  C   C181      1.0  0.45786  0.74335  0.96613  1.0000
  C   C182      1.0  0.21099  0.95509  0.78566  1.0000
  H   H310      1.0  0.25847  0.60132  0.00087  1.0000
  H   H311      1.0  0.36271  0.77966  0.97225  1.0000
  H   H312      1.0  0.41747  0.76491  0.92222  1.0000
  C   C183      1.0  0.43578  0.70827  0.81114  1.0000
  H   H313      1.0  0.22422  0.99015  0.76534  1.0000
  H   H314      1.0  0.40383  0.94088  0.98026  1.0000
  S   S43       1.0  0.29881  0.58753  0.73101  1.0000
  C   C184      1.0  0.28579  0.98417  0.01282  1.0000
  H   H315      1.0  0.37821  0.81957  0.75289  1.0000
  H   H316      1.0  0.30483  0.94773  0.80541  1.0000
  H   H317      1.0  0.30690  0.56813  0.86835  1.0000
  C   C185      1.0  0.20717  0.90809  0.76034  1.0000
  H   H318      1.0  0.23362  0.89169  0.94935  1.0000
  C   C186      1.0  0.26820  0.61057  0.93639  1.0000
  H   H319      1.0  0.38674  0.63223  0.83916  1.0000
  H   H320      1.0  0.10173  0.58041  0.71128  1.0000
  H   H321      1.0  0.42027  0.69530  0.78030  1.0000
  H   H322      1.0  0.49180  0.72465  0.01651  1.0000
  C   C187      1.0  0.48196  0.56485  0.86627  1.0000
  H   H323      1.0  0.20976  0.84805  0.90669  1.0000
  H   H324      1.0  0.06257  0.67791  0.71523  1.0000
  H   H325      1.0  0.43484  0.88148  0.69690  1.0000
  H   H326      1.0  0.45732  0.54167  0.89230  1.0000
  C   C188      1.0  0.22403  0.92355  0.85009  1.0000
  H   H327      1.0  0.41166  0.68929  0.87183  1.0000
  C   C189      1.0  0.41181  0.81348  0.76152  1.0000
  C   C190      1.0  0.46375  0.73668  0.00685  1.0000
  H   H328      1.0  0.26077  0.56912  0.93365  1.0000
  H   H329      1.0  0.43486  0.84142  0.78613  1.0000
  N   N8        1.0  0.24697  0.97084  0.82196  1.0000
  H   H330      1.0  0.48032  0.81485  0.73447  1.0000
  Fe  Fe22      1.0  0.26470  0.50372  0.70676  1.0000
  H   H331      1.0  0.18015  0.90650  0.85332  1.0000
  C   C191      1.0  0.21441  0.88547  0.91963  1.0000
  S   S44       1.0  0.16880  0.78717  0.99684  1.0000
  H   H332      1.0  0.19007  0.87071  0.77817  1.0000
  C   C192      1.0  0.28833  0.62914  0.97895  1.0000
  H   H333      1.0  0.44776  0.75094  0.81539  1.0000
  H   H334      1.0  0.25116  0.96871  0.90704  1.0000
  H   H335      1.0  0.29416  0.66961  0.98420  1.0000
  N   N9        1.0  0.29421  0.63539  0.86163  1.0000
  C   C193      1.0  0.24856  0.64537  0.85388  1.0000
  C   C194      1.0  0.31011  0.64716  0.90512  1.0000
  C   C195      1.0  0.34124  0.67508  0.83682  1.0000
  C   C196      1.0  0.28138  0.57938  0.85065  1.0000
  H   H336      1.0  0.18694  0.93205  0.70404  1.0000
  C   C197      1.0  0.23280  0.64387  0.80929  1.0000
  C   C198      1.0  0.39382  0.67352  0.84213  1.0000
  C   C199      1.0  0.24859  0.93313  0.89245  1.0000
  H   H337      1.0  0.24693  0.91718  0.74916  1.0000
  H   H338      1.0  0.01328  0.57697  0.71396  1.0000
  H   H339      1.0  0.14697  0.58961  0.81392  1.0000
  H   H340      1.0  0.47184  0.70445  0.81508  1.0000
  H   H341      1.0  0.25849  0.68548  0.86558  1.0000
  H   H342      1.0  0.21239  0.61710  0.87083  1.0000
  C   C200      1.0  0.05333  0.69746  0.69153  1.0000
  H   H343      1.0  0.32160  0.68933  0.91214  1.0000
  H   H344      1.0  0.35029  0.71671  0.84317  1.0000
  H   H345      1.0  0.33138  0.66829  0.80438  1.0000
  H   H346      1.0  0.29215  0.57768  0.81887  1.0000
  C   C201      1.0  0.46807  0.92794  0.99943  1.0000
  H   H347      1.0  0.34582  0.64354  0.91155  1.0000
  C   C202      1.0  0.10362  0.54677  0.69697  1.0000
  H   H348      1.0  0.25928  0.68363  0.79549  1.0000
  H   H349      1.0  0.23729  0.61362  0.79200  1.0000
  H   H350      1.0  0.16871  0.86269  0.70667  1.0000
  H   H351      1.0  0.50137  0.60813  0.87362  1.0000
  H   H352      1.0  0.23010  0.61057  0.93308  1.0000
  H   H353      1.0  0.48587  0.90765  0.73274  1.0000
  C   C203      1.0  0.43943  0.94174  0.96720  1.0000
  H   H354      1.0  0.17512  0.97706  0.87661  1.0000
  H   H355      1.0  0.16722  0.63713  0.77334  1.0000
  H   H356      1.0  0.39427  0.77180  0.77243  1.0000
  C   C204      1.0  0.17515  0.63156  0.80496  1.0000
  H   H357      1.0  0.50223  0.89433  0.96102  1.0000
  H   H358      1.0  0.42600  0.91212  0.94244  1.0000
  C   C205      1.0  0.17092  0.89658  0.72400  1.0000
  H   H359      1.0  0.45561  0.55675  0.83989  1.0000
  H   H360      1.0  0.32675  0.63019  0.98425  1.0000
  C   C206      1.0  0.30212  0.98455  0.80777  1.0000
  H   H361      1.0  0.48437  0.53215  0.98902  1.0000
  S   S45       1.0  0.21852  0.70794  0.00502  1.0000
  H   H362      1.0  0.12982  0.88531  0.73348  1.0000
  C   C207      1.0  0.30707  0.63309  0.69290  1.0000
  C   C208      1.0  0.31903  0.98449  0.98240  1.0000
  H   H363      1.0  0.18414  0.57381  0.71824  1.0000
  H   H364      1.0  0.28887  0.93753  0.89092  1.0000
  C   C209      1.0  0.31224  0.68269  0.70254  1.0000
  H   H365      1.0  0.46607  0.98249  0.95508  1.0000
  S   S46       1.0  0.49518  0.73163  0.93046  1.0000
  C   C210      1.0  0.00531  0.52598  0.76274  1.0000
  C   C211      1.0  0.44755  0.82199  0.72539  1.0000
  H   H366      1.0  0.04921  0.54564  0.76651  1.0000
  H   H367      1.0  0.19826  0.53571  0.82975  1.0000
  H   H368      1.0  0.20362  0.53631  0.88301  1.0000
  H   H369      1.0  0.42221  0.79113  0.70313  1.0000
  H   H370      1.0  0.40100  0.99071  0.82167  1.0000
  H   H371      1.0  0.14629  0.50344  0.70675  1.0000
  H   H372      1.0  0.30971  0.00150  0.77690  1.0000
  C   C212      1.0  0.62899  0.06913  0.05975  1.0000
  H   H373      1.0  0.90113  0.28217  0.13545  1.0000
  H   H374      1.0  0.62791  0.30271  0.30305  1.0000
  Fe  Fe23      1.0  0.88672  0.26062  0.04017  1.0000
  S   S47       1.0  0.81256  0.20995  0.07550  1.0000
  S   S48       1.0  0.80214  0.45037  0.26424  1.0000
  H   H375      1.0  0.66775  0.16538  0.22963  1.0000
  H   H376      1.0  0.91473  0.38071  0.21471  1.0000
  C   C213      1.0  0.88916  0.37219  0.24158  1.0000
  S   S49       1.0  0.71238  0.25927  0.06659  1.0000
  C   C214      1.0  0.94164  0.29793  0.14589  1.0000
  C   C215      1.0  0.75546  0.40638  0.29895  1.0000
  C   C216      1.0  0.70452  0.36788  0.28595  1.0000
  C   C217      1.0  0.66668  0.33265  0.31349  1.0000
  H   H377      1.0  0.80759  0.34604  0.25693  1.0000
  H   H378      1.0  0.92123  0.29604  0.20813  1.0000
  H   H379      1.0  0.69415  0.36546  0.25462  1.0000
  C   C218      1.0  0.57974  0.44061  0.07142  1.0000
  S   S50       1.0  0.74633  0.06518  0.04854  1.0000
  H   H380      1.0  0.73979  0.10805  0.16616  1.0000
  H   H381      1.0  0.53802  0.42942  0.06424  1.0000
  H   H382      1.0  0.89182  0.34195  0.26044  1.0000
  H   H383      1.0  0.62639  0.31838  0.13895  1.0000
  H   H384      1.0  0.69109  0.34344  0.11627  1.0000
  H   H385      1.0  0.93975  0.39520  0.13719  1.0000
  H   H386      1.0  0.58659  0.15182  0.13470  1.0000
  H   H387      1.0  0.54282  0.14412  0.04978  1.0000
  C   C219      1.0  0.63011  0.27402  0.04368  1.0000
  C   C220      1.0  0.98278  0.31146  0.11830  1.0000
  H   H388      1.0  0.51865  0.38482  0.19441  1.0000
  N   N10       1.0  0.74840  0.27213  0.19658  1.0000
  C   C221      1.0  0.73550  0.22730  0.16752  1.0000
  C   C222      1.0  0.73526  0.31147  0.17731  1.0000
  C   C223      1.0  0.80812  0.30096  0.20364  1.0000
  C   C224      1.0  0.71978  0.25255  0.23620  1.0000
  C   C225      1.0  0.66378  0.20102  0.23531  1.0000
  H   H389      1.0  0.54745  0.12110  0.17924  1.0000
  C   C226      1.0  0.83138  0.35263  0.22932  1.0000
  C   C227      1.0  0.67576  0.29103  0.16761  1.0000
  C   C228      1.0  0.66933  0.33363  0.14523  1.0000
  H   H390      1.0  0.75132  0.18084  0.21297  1.0000
  Fe  Fe24      1.0  0.77360  0.24420  0.03722  1.0000
  H   H391      1.0  0.75456  0.24407  0.13809  1.0000
  H   H392      1.0  0.69221  0.20420  0.16078  1.0000
  H   H393      1.0  0.74718  0.34659  0.19711  1.0000
  H   H394      1.0  0.75865  0.32732  0.14910  1.0000
  H   H395      1.0  0.82998  0.31206  0.17453  1.0000
  H   H396      1.0  0.59651  0.15335  0.27440  1.0000
  H   H397      1.0  0.59898  0.44130  0.24133  1.0000
  H   H398      1.0  0.71553  0.28480  0.25087  1.0000
  H   H399      1.0  0.63761  0.20212  0.21171  1.0000
  H   H400      1.0  0.50610  0.46153  0.33828  1.0000
  H   H401      1.0  0.62509  0.39879  0.07413  1.0000
  C   C229      1.0  0.95317  0.30613  0.18704  1.0000
  H   H402      1.0  0.83182  0.38550  0.21182  1.0000
  H   H403      1.0  0.65824  0.25478  0.14858  1.0000
  H   H404      1.0  0.65241  0.28240  0.19571  1.0000
  H   H405      1.0  0.65944  0.19105  0.30027  1.0000
  H   H406      1.0  0.52727  0.07041  0.09543  1.0000
  H   H407      1.0  0.90459  0.40969  0.25919  1.0000
  S   S51       1.0  0.97078  0.30609  0.06612  1.0000
  C   C230      1.0  0.75438  0.18769  0.18020  1.0000
  H   H408      1.0  0.72235  0.13860  0.12648  1.0000
  C   C231      1.0  0.51220  0.07709  0.12397  1.0000
  C   C232      1.0  0.50662  0.13563  0.03245  1.0000
  C   C233      1.0  0.58495  0.39107  0.06490  1.0000
  H   H409      1.0  0.81977  0.27405  0.21883  1.0000
  H   H410      1.0  0.68480  0.37056  0.16352  1.0000
  H   H411      1.0  0.68014  0.11270  0.17011  1.0000
  C   C234      1.0  0.63476  0.19202  0.27518  1.0000
  C   C235      1.0  0.65854  0.50197  0.29485  1.0000
  H   H412      1.0  0.62529  0.22421  0.28053  1.0000
  S   S52       1.0  0.51449  0.17020  0.33445  1.0000
  H   H413      1.0  0.74414  0.24405  0.25759  1.0000
  H   H414      1.0  0.61378  0.25952  0.07313  1.0000
  C   C236      1.0  0.57391  0.45381  0.25839  1.0000
  C   C237      1.0  0.72208  0.13353  0.15941  1.0000
  H   H415      1.0  0.79707  0.20461  0.17183  1.0000
  H   H416      1.0  0.59508  0.40340  0.31943  1.0000
  C   C238      1.0  0.62031  0.48765  0.04527  1.0000
  H   H417      1.0  0.66972  0.47091  0.28838  1.0000
  C   C239      1.0  0.58122  0.43131  0.32919  1.0000
  H   H418      1.0  0.55449  0.35744  0.08306  1.0000
  H   H419      1.0  0.65031  0.06077  0.08378  1.0000
  C   C240      1.0  0.56052  0.11313  0.15004  1.0000
  C   C241      1.0  0.67826  0.27735  0.03237  1.0000
  C   C242      1.0  0.51679  0.40403  0.25734  1.0000
  N   N11       1.0  0.59854  0.47594  0.29900  1.0000
  H   H420      1.0  0.65723  0.09054  0.03494  1.0000
  H   H421      1.0  0.58423  0.09326  0.15577  1.0000
  H   H422      1.0  0.92732  0.43810  0.10544  1.0000
  H   H423      1.0  0.51825  0.36809  0.26712  1.0000
  S   S53       1.0  0.52764  0.28659  0.31187  1.0000
  C   C243      1.0  0.95815  0.42837  0.11517  1.0000
  H   H424      1.0  0.57852  0.37895  0.03295  1.0000
  C   C244      1.0  0.76890  0.40888  0.33937  1.0000
  H   H425      1.0  0.57325  0.48568  0.24009  1.0000
  H   H426      1.0  0.53722  0.40649  0.33093  1.0000
  H   H427      1.0  0.61537  0.09594  0.07201  1.0000
  H   H428      1.0  0.56633  0.28750  0.02610  1.0000
  H   H429      1.0  0.53588  0.22739  0.13795  1.0000
  H   H430      1.0  0.66018  0.49534  0.05514  1.0000
  H   H431      1.0  0.58787  0.45094  0.10355  1.0000
  H   H432      1.0  0.97130  0.41485  0.08860  1.0000
  S   S54       1.0  0.50919  0.19914  0.22063  1.0000
  Fe  Fe25      1.0  0.78984  0.14995  0.02618  1.0000
  H   H433      1.0  0.50475  0.49015  0.29047  1.0000
  C   C245      1.0  0.50452  0.23563  0.14581  1.0000
  H   H434      1.0  0.98954  0.48867  0.16043  1.0000
  C   C246      1.0  0.58147  0.01700  0.04475  1.0000
  C   C247      1.0  0.52560  0.49823  0.31970  1.0000
  H   H435      1.0  0.53168  0.50074  0.05385  1.0000
  H   H436      1.0  0.80858  0.43798  0.34944  1.0000
  H   H437      1.0  0.55940  0.02810  0.02328  1.0000
  H   H438      1.0  0.50307  0.14553  0.11061  1.0000
  Fe  Fe26      1.0  0.82132  0.13551  0.63201  1.0000
  S   S55       1.0  0.75572  0.05768  0.65649  1.0000
  S   S56       1.0  0.90520  0.15157  0.62234  1.0000
  Fe  Fe27      1.0  0.75093  0.18422  0.62500  1.0000
  S   S57       1.0  0.67868  0.11115  0.64905  1.0000
  S   S58       1.0  0.76139  0.26191  0.60137  1.0000
  Fe  Fe28      1.0  0.70411  0.06463  0.60947  1.0000
  H   H439      1.0  0.91712  0.45553  0.67249  1.0000
  H   H440      1.0  0.75207  0.33257  0.46333  1.0000
  S   S59       1.0  0.77166  0.13817  0.58160  1.0000
  H   H441      1.0  0.82324  0.41557  0.49324  1.0000
  C   C248      1.0  0.75076  0.30230  0.63495  1.0000
  H   H442      1.0  0.66303  0.30267  0.50253  1.0000
  H   H443      1.0  0.87107  0.43163  0.55752  1.0000
  C   C249      1.0  0.77600  0.39172  0.65799  1.0000
  C   C250      1.0  0.78651  0.35748  0.63500  1.0000
  H   H444      1.0  0.80403  0.43404  0.65805  1.0000
  H   H445      1.0  0.82231  0.37381  0.61698  1.0000
  C   C251      1.0  0.62796  0.38070  0.60699  1.0000
  C   C252      1.0  0.91536  0.29293  0.53575  1.0000
  C   C253      1.0  0.59998  0.44835  0.37296  1.0000
  C   C254      1.0  0.67959  0.33553  0.35407  1.0000
  C   C255      1.0  0.54978  0.07653  0.49600  1.0000
  H   H446      1.0  0.67678  0.23860  0.65839  1.0000
  H   H447      1.0  0.74224  0.37375  0.39750  1.0000
  H   H448      1.0  0.57111  0.10548  0.47161  1.0000
  H   H449      1.0  0.87377  0.32917  0.56415  1.0000
  C   C256      1.0  0.95317  0.21596  0.63826  1.0000
  Fe  Fe29      1.0  0.54853  0.25080  0.36303  1.0000
  H   H450      1.0  0.86516  0.19781  0.49944  1.0000
  H   H451      1.0  0.97508  0.21500  0.43117  1.0000
  H   H452      1.0  0.77377  0.39515  0.56388  1.0000
  H   H453      1.0  0.76991  0.45338  0.55515  1.0000
  S   S60       1.0  0.80516  0.18650  0.67371  1.0000
  H   H454      1.0  0.54519  0.07376  0.67606  1.0000
  C   C257      1.0  0.58864  0.09692  0.53225  1.0000
  H   H455      1.0  0.71097  0.23493  0.51858  1.0000
  H   H456      1.0  0.88828  0.25413  0.55056  1.0000
  H   H457      1.0  0.96466  0.18456  0.50198  1.0000
  H   H458      1.0  0.55416  0.07332  0.40742  1.0000
  H   H459      1.0  0.59688  0.01350  0.50521  1.0000
  H   H460      1.0  0.68185  0.45523  0.47850  1.0000
  H   H461      1.0  0.63538  0.36707  0.52302  1.0000
  H   H462      1.0  0.57355  0.06924  0.55800  1.0000
  C   C258      1.0  0.98776  0.25763  0.42583  1.0000
  H   H463      1.0  0.58955  0.36836  0.59149  1.0000
  C   C259      1.0  0.93953  0.25568  0.64258  1.0000
  C   C260      1.0  0.53135  0.03766  0.65709  1.0000
  H   H464      1.0  0.62801  0.10214  0.52351  1.0000
  H   H465      1.0  0.96577  0.33615  0.66168  1.0000
  H   H466      1.0  0.62860  0.16667  0.57078  1.0000
  H   H467      1.0  0.59943  0.03092  0.41427  1.0000
  H   H468      1.0  0.68181  0.37492  0.45903  1.0000
  H   H469      1.0  0.70887  0.45222  0.40716  1.0000
  H   H470      1.0  0.00109  0.34370  0.52676  1.0000
  H   H471      1.0  0.63953  0.31921  0.58159  1.0000
  H   H472      1.0  0.81590  0.10037  0.49342  1.0000
  C   C261      1.0  0.88849  0.17816  0.49227  1.0000
  H   H473      1.0  0.89115  0.17696  0.45924  1.0000
  C   C262      1.0  0.85662  0.12014  0.50662  1.0000
  C   C263      1.0  0.61718  0.04356  0.44453  1.0000
  S   S61       1.0  0.63150  0.29376  0.38941  1.0000
  H   H474      1.0  0.69927  0.37666  0.59982  1.0000
  H   H475      1.0  0.69493  0.06111  0.42256  1.0000
  C   C264      1.0  0.74281  0.31507  0.49375  1.0000
  H   H476      1.0  0.74160  0.01003  0.54638  1.0000
  H   H477      1.0  0.55996  0.14619  0.55970  1.0000
  C   C265      1.0  0.66184  0.36361  0.58302  1.0000
  C   C266      1.0  0.59755  0.15088  0.54700  1.0000
  H   H478      1.0  0.59909  0.37496  0.38933  1.0000
  H   H479      1.0  0.99457  0.32592  0.45715  1.0000
  C   C267      1.0  0.71985  0.25486  0.48890  1.0000
  H   H480      1.0  0.68288  0.23726  0.47052  1.0000
  H   H481      1.0  0.78028  0.33045  0.51128  1.0000
  H   H482      1.0  0.87653  0.09752  0.49731  1.0000
  H   H483      1.0  0.85273  0.11836  0.53970  1.0000
  H   H484      1.0  0.90056  0.24806  0.63357  1.0000
  C   C268      1.0  0.91527  0.33682  0.56127  1.0000
  C   C269      1.0  0.94502  0.20749  0.51150  1.0000
  H   H485      1.0  0.68327  0.43011  0.54348  1.0000
  H   H486      1.0  0.70080  0.31127  0.54688  1.0000
  N   N12       1.0  0.71755  0.38534  0.51770  1.0000
  C   C270      1.0  0.71823  0.40453  0.47562  1.0000
  C   C271      1.0  0.70339  0.32738  0.51620  1.0000
  C   C272      1.0  0.67353  0.38778  0.54022  1.0000
  C   C273      1.0  0.76969  0.41910  0.53961  1.0000
  C   C274      1.0  0.82183  0.44413  0.51445  1.0000
  H   H487      1.0  0.61927  0.36152  0.63697  1.0000
  H   H488      1.0  0.92917  0.27052  0.45648  1.0000
  H   H489      1.0  0.93987  0.20128  0.54442  1.0000
  H   H490      1.0  0.63153  0.08671  0.44862  1.0000
  C   C275      1.0  0.87095  0.46517  0.54138  1.0000
  H   H491      1.0  0.61097  0.18030  0.52217  1.0000
  C   C276      1.0  0.58168  0.39938  0.39980  1.0000
  H   H492      1.0  0.53741  0.37425  0.39965  1.0000
  H   H493      1.0  0.75206  0.40714  0.45853  1.0000
  H   H494      1.0  0.74944  0.24731  0.47354  1.0000
  N   N13       1.0  0.98024  0.26644  0.50234  1.0000
  H   H495      1.0  0.91931  0.23936  0.38776  1.0000
  C   C277      1.0  0.97139  0.28154  0.46097  1.0000
  H   H496      1.0  0.59515  0.41231  0.43098  1.0000
  H   H497      1.0  0.89870  0.29407  0.50622  1.0000
  H   H498      1.0  0.95817  0.43393  0.64870  1.0000
  C   C278      1.0  0.51101  0.05106  0.41427  1.0000
  C   C279      1.0  0.72140  0.45952  0.47178  1.0000
  C   C280      1.0  0.97220  0.30057  0.53265  1.0000
  H   H499      1.0  0.82543  0.47815  0.49658  1.0000
  C   C281      1.0  0.66600  0.03638  0.44613  1.0000
  H   H500      1.0  0.93078  0.33731  0.59172  1.0000
  H   H501      1.0  0.55686  0.04901  0.62996  1.0000
  H   H502      1.0  0.51499  0.08157  0.50299  1.0000
  C   C282      1.0  0.70486  0.28116  0.65872  1.0000
  C   C283      1.0  0.97666  0.30581  0.65803  1.0000
  H   H503      1.0  0.64989  0.42477  0.61139  1.0000
  H   H504      1.0  0.58271  0.47202  0.38536  1.0000
  H   H505      1.0  0.94009  0.37660  0.54710  1.0000
  C   C284      1.0  0.96362  0.26187  0.38628  1.0000
  C   C285      1.0  0.73124  0.37282  0.36668  1.0000
  H   H506      1.0  0.98111  0.29250  0.56336  1.0000
  H   H507      1.0  0.68617  0.04922  0.47565  1.0000
  N   N14       1.0  0.53019  0.01958  0.48298  1.0000
  H   H508      1.0  0.75094  0.48901  0.49299  1.0000
  C   C286      1.0  0.73675  0.48165  0.42928  1.0000
  C   C287      1.0  0.69369  0.31567  0.68098  1.0000
  C   C288      1.0  0.72886  0.37111  0.68020  1.0000
  H   H509      1.0  0.64400  0.47237  0.37520  1.0000
  C   C289      1.0  0.57554  0.00894  0.47657  1.0000
  H   H510      1.0  0.97617  0.24468  0.36173  1.0000
  C   C290      1.0  0.95248  0.45053  0.67721  1.0000
  H   H511      1.0  0.90769  0.48572  0.52286  1.0000
  H   H512      1.0  0.77804  0.49085  0.42227  1.0000
  H   H513      1.0  0.88723  0.34259  0.66627  1.0000
  H   H514      1.0  0.97769  0.30446  0.37903  1.0000
  H   H515      1.0  0.87140  0.49413  0.56344  1.0000
  H   H516      1.0  0.95605  0.25131  0.73648  1.0000
  S   S62       1.0  0.59200  0.33037  0.94555  1.0000
  H   H517      1.0  0.99838  0.39790  0.83853  1.0000
  Fe  Fe30      1.0  0.82519  0.23433  0.96108  1.0000
  S   S63       1.0  0.74590  0.18096  0.99004  1.0000
  S   S64       1.0  0.83521  0.25723  0.89533  1.0000
  C   C291      1.0  0.88455  0.13587  0.73391  1.0000
  H   H518      1.0  0.84603  0.35968  0.77888  1.0000
  H   H519      1.0  0.54361  0.49493  0.77824  1.0000
  H   H520      1.0  0.88099  0.09773  0.72349  1.0000
  H   H521      1.0  0.58170  0.25345  0.84378  1.0000
  H   H522      1.0  0.60032  0.35988  0.80901  1.0000
  N   N15       1.0  0.99172  0.25720  0.79452  1.0000
  S   S65       1.0  0.71355  0.08531  0.75911  1.0000
  H   H523      1.0  0.60506  0.34794  0.86151  1.0000
  H   H524      1.0  0.85852  0.03656  0.82926  1.0000
  H   H525      1.0  0.58717  0.43244  0.78658  1.0000
  H   H526      1.0  0.58084  0.12047  0.76292  1.0000
  C   C292      1.0  0.77380  0.02694  0.98276  1.0000
  H   H527      1.0  0.62333  0.47769  0.94554  1.0000
  H   H528      1.0  0.79201  0.06705  0.97071  1.0000
  C   C293      1.0  0.80063  0.20857  0.85827  1.0000
  C   C294      1.0  0.76718  0.15463  0.86779  1.0000
  C   C295      1.0  0.74080  0.11706  0.83712  1.0000
  C   C296      1.0  0.74831  0.13308  0.79685  1.0000
  C   C297      1.0  0.78201  0.18703  0.78746  1.0000
  C   C298      1.0  0.80759  0.22462  0.81809  1.0000
  H   H529      1.0  0.76163  0.14191  0.89873  1.0000
  H   H530      1.0  0.71465  0.07541  0.84463  1.0000
  H   H531      1.0  0.78748  0.20002  0.75670  1.0000
  H   H532      1.0  0.83262  0.26641  0.81071  1.0000
  C   C299      1.0  0.62428  0.30895  0.97899  1.0000
  C   C300      1.0  0.67238  0.31213  0.96767  1.0000
  H   H533      1.0  0.92115  0.30123  0.78759  1.0000
  H   H534      1.0  0.89794  0.21626  0.84222  1.0000
  H   H535      1.0  0.54822  0.47340  0.98433  1.0000
  H   H536      1.0  0.81808  0.39804  0.75728  1.0000
  C   C301      1.0  0.92029  0.19524  0.84728  1.0000
  H   H537      1.0  0.68909  0.32731  0.93842  1.0000
  C   C302      1.0  0.69914  0.29590  0.99421  1.0000
  H   H538      1.0  0.73644  0.29871  0.98543  1.0000
  H   H539      1.0  0.58260  0.27037  0.79195  1.0000
  H   H540      1.0  0.85309  0.12671  0.75664  1.0000
  C   C303      1.0  0.62652  0.49631  0.74529  1.0000
  C   C304      1.0  0.88447  0.35521  0.69714  1.0000
  C   C305      1.0  0.56990  0.49663  0.80319  1.0000
  C   C306      1.0  0.58635  0.32877  0.83267  1.0000
  H   H541      1.0  0.98822  0.48364  0.77122  1.0000
  H   H542      1.0  0.93514  0.15698  0.89814  1.0000
  C   C307      1.0  0.57229  0.48256  0.87649  1.0000
  H   H543      1.0  0.59255  0.47923  0.72393  1.0000
  H   H544      1.0  0.00101  0.25973  0.85902  1.0000
  C   C308      1.0  0.97993  0.22973  0.83493  1.0000
  H   H545      1.0  0.90909  0.22107  0.77510  1.0000
  S   S66       1.0  0.84986  0.30110  0.00578  1.0000
  H   H546      1.0  0.98781  0.39992  0.78542  1.0000
  H   H547      1.0  0.94581  0.15061  0.77681  1.0000
  H   H548      1.0  0.96992  0.17786  0.72808  1.0000
  H   H549      1.0  0.61460  0.43935  0.85908  1.0000
  H   H550      1.0  0.87156  0.15439  0.89904  1.0000
  H   H551      1.0  0.85903  0.42166  0.80157  1.0000
  H   H552      1.0  0.93139  0.21613  0.91057  1.0000
  C   C309      1.0  0.94796  0.22708  0.76428  1.0000
  N   N16       1.0  0.68305  0.27259  0.81206  1.0000
  C   C310      1.0  0.64533  0.22792  0.78467  1.0000
  C   C311      1.0  0.66225  0.31055  0.82000  1.0000
  C   C312      1.0  0.73591  0.30365  0.79057  1.0000
  C   C313      1.0  0.69284  0.25172  0.85063  1.0000
  C   C314      1.0  0.64339  0.21604  0.87668  1.0000
  C   C315      1.0  0.66208  0.18680  0.77203  1.0000
  C   C316      1.0  0.77923  0.35497  0.81200  1.0000
  C   C317      1.0  0.60070  0.28628  0.82172  1.0000
  H   H553      1.0  0.92099  0.04792  0.84973  1.0000
  C   C318      1.0  0.65826  0.19124  0.91119  1.0000
  C   C319      1.0  0.61892  0.14270  0.74610  1.0000
  C   C320      1.0  0.82858  0.38535  0.78563  1.0000
  H   H554      1.0  0.63925  0.24523  0.75674  1.0000
  H   H555      1.0  0.60515  0.20440  0.79827  1.0000
  H   H556      1.0  0.67935  0.33294  0.84840  1.0000
  H   H557      1.0  0.67580  0.34161  0.79600  1.0000
  H   H558      1.0  0.72959  0.31555  0.76023  1.0000
  H   H559      1.0  0.75435  0.27842  0.78576  1.0000
  H   H560      1.0  0.71442  0.22965  0.84470  1.0000
  H   H561      1.0  0.72002  0.28541  0.87043  1.0000
  H   H562      1.0  0.61130  0.18276  0.85939  1.0000
  H   H563      1.0  0.62787  0.24065  0.89017  1.0000
  H   H564      1.0  0.69912  0.20599  0.75388  1.0000
  H   H565      1.0  0.66820  0.16746  0.79858  1.0000
  H   H566      1.0  0.79248  0.34465  0.84009  1.0000
  H   H567      1.0  0.76452  0.38279  0.81926  1.0000
  H   H568      1.0  0.86314  0.02258  0.88147  1.0000
  H   H569      1.0  0.96717  0.39563  0.71361  1.0000
  H   H570      1.0  0.65651  0.44507  0.92398  1.0000
  H   H571      1.0  0.52901  0.39058  0.83248  1.0000
  C   C321      1.0  0.95319  0.31956  0.81037  1.0000
  H   H572      1.0  0.69095  0.22289  0.92939  1.0000
  H   H573      1.0  0.62312  0.16824  0.93090  1.0000
  H   H574      1.0  0.63179  0.11389  0.73716  1.0000
  H   H575      1.0  0.54235  0.30998  0.83576  1.0000
  H   H576      1.0  0.61222  0.15997  0.71850  1.0000
  S   S67       1.0  0.86741  0.19746  0.99311  1.0000
  N   N17       1.0  0.53708  0.46911  0.83986  1.0000
  H   H577      1.0  0.56507  0.40721  0.89728  1.0000
  C   C322      1.0  0.91455  0.17979  0.89146  1.0000
  H   H578      1.0  0.90019  0.15764  0.82973  1.0000
  C   C323      1.0  0.60713  0.47653  0.78768  1.0000
  H   H579      1.0  0.87804  0.15568  0.70790  1.0000
  H   H580      1.0  0.55489  0.17699  0.98065  1.0000
  H   H581      1.0  0.61631  0.47296  0.01409  1.0000
  H   H582      1.0  0.92711  0.41940  0.73791  1.0000
  C   C324      1.0  0.59668  0.44661  0.88572  1.0000
  H   H583      1.0  0.87706  0.32220  0.71795  1.0000
  H   H584      1.0  0.84982  0.36164  0.69880  1.0000
  H   H585      1.0  0.67150  0.16374  0.89960  1.0000
  Fe  Fe31      1.0  0.73541  0.10930  0.69431  1.0000
  C   C325      1.0  0.94008  0.17193  0.75143  1.0000
  C   C326      1.0  0.60302  0.28954  0.01695  1.0000
  H   H586      1.0  0.64307  0.49237  0.80704  1.0000
  S   S68       1.0  0.71203  0.41377  0.70588  1.0000
  H   H587      1.0  0.93773  0.30160  0.84010  1.0000
  C   C327      1.0  0.93566  0.40629  0.70925  1.0000
  H   H588      1.0  0.54944  0.48038  0.90395  1.0000
  H   H589      1.0  0.62290  0.00452  0.99682  1.0000
  H   H590      1.0  0.93357  0.38196  0.82015  1.0000
  C   C328      1.0  0.64014  0.47179  0.91761  1.0000
  C   C329      1.0  0.96939  0.37855  0.81371  1.0000
  C   C330      1.0  0.87698  0.02121  0.85074  1.0000
  C   C331      1.0  0.50379  0.40918  0.83484  1.0000
  H   H591      1.0  0.65528  0.48353  0.73602  1.0000
  C   C332      1.0  0.52002  0.13727  0.98807  1.0000
  H   H592      1.0  0.99647  0.20230  0.83675  1.0000
  H   H593      1.0  0.65687  0.29964  0.69771  1.0000
  Fe  Fe32      1.0  0.50621  0.30154  0.96064  1.0000
  C   C333      1.0  0.00147  0.31350  0.79846  1.0000
  H   H594      1.0  0.53023  0.10595  0.98086  1.0000
  C   C334      1.0  0.74936  0.01579  0.02035  1.0000
  H   H595      1.0  0.57724  0.01133  0.69000  1.0000
  Fe  Fe33      1.0  0.75765  0.50143  0.68836  1.0000
  S   S69       1.0  0.96627  0.66576  0.33410  1.0000
  H   H596      1.0  0.60832  0.53792  0.34026  1.0000
  H   H597      1.0  0.83646  0.78691  0.16482  1.0000
  H   H598      1.0  0.53700  0.57869  0.32396  1.0000
  S   S70       1.0  0.84211  0.56536  0.34056  1.0000
  Fe  Fe34      1.0  0.62159  0.79777  0.30186  1.0000
  S   S71       1.0  0.63418  0.83298  0.23969  1.0000
  S   S72       1.0  0.56443  0.71053  0.31117  1.0000
  H   H599      1.0  0.68637  0.58359  0.27305  1.0000
  S   S73       1.0  0.61227  0.68471  0.09242  1.0000
  Fe  Fe35      1.0  0.88832  0.63911  0.30299  1.0000
  H   H600      1.0  0.51791  0.68667  0.20548  1.0000
  S   S74       1.0  0.86129  0.69666  0.28405  1.0000
  H   H601      1.0  0.74284  0.52508  0.24024  1.0000
  S   S75       1.0  0.94084  0.54154  0.32429  1.0000
  Fe  Fe36      1.0  0.97965  0.61721  0.28797  1.0000
  H   H602      1.0  0.70728  0.95532  0.06514  1.0000
  S   S76       1.0  0.90551  0.59732  0.25389  1.0000
  C   C335      1.0  0.58565  0.54646  0.11828  1.0000
  H   H603      1.0  0.86924  0.72408  0.17372  1.0000
  C   C336      1.0  0.77428  0.70989  0.29187  1.0000
  C   C337      1.0  0.80121  0.68440  0.30649  1.0000
  H   H604      1.0  0.55646  0.50314  0.11776  1.0000
  C   C338      1.0  0.51762  0.54051  0.34094  1.0000
  S   S77       1.0  0.58647  0.82545  0.34992  1.0000
  H   H605      1.0  0.79097  0.73776  0.26721  1.0000
  H   H606      1.0  0.57130  0.85274  0.06554  1.0000
  C   C339      1.0  0.63069  0.79268  0.19889  1.0000
  C   C340      1.0  0.62624  0.74272  0.20488  1.0000
  C   C341      1.0  0.62126  0.71038  0.17191  1.0000
  C   C342      1.0  0.62139  0.72791  0.13275  1.0000
  C   C343      1.0  0.62660  0.77821  0.12670  1.0000
  C   C344      1.0  0.63131  0.81050  0.15971  1.0000
  H   H607      1.0  0.62653  0.72897  0.23490  1.0000
  H   H608      1.0  0.61728  0.67166  0.17685  1.0000
  H   H609      1.0  0.62692  0.79225  0.09668  1.0000
  H   H610      1.0  0.63568  0.84952  0.15493  1.0000
  H   H611      1.0  0.51023  0.67201  0.13952  1.0000
  C   C345      1.0  0.95198  0.77795  0.15239  1.0000
  C   C346      1.0  0.68508  0.54649  0.26257  1.0000
  C   C347      1.0  0.72566  0.96384  0.03584  1.0000
  C   C348      1.0  0.77953  0.64883  0.33859  1.0000
  H   H612      1.0  0.63799  0.60409  0.16283  1.0000
  H   H613      1.0  0.94358  0.76632  0.12032  1.0000
  C   C349      1.0  0.94245  0.69230  0.17700  1.0000
  H   H614      1.0  0.66349  0.53475  0.23374  1.0000
  H   H615      1.0  0.54960  0.84362  0.13661  1.0000
  H   H616      1.0  0.51037  0.84234  0.26358  1.0000
  C   C350      1.0  0.91345  0.66087  0.13864  1.0000
  C   C351      1.0  0.89916  0.76737  0.17259  1.0000
  C   C352      1.0  0.87389  0.79483  0.14963  1.0000
  C   C353      1.0  0.63208  0.56345  0.08783  1.0000
  C   C354      1.0  0.87602  0.60169  0.14797  1.0000
  C   C355      1.0  0.74237  0.55978  0.25414  1.0000
  C   C356      1.0  0.60687  0.56115  0.16098  1.0000
  H   H617      1.0  0.97868  0.82213  0.15207  1.0000
  H   H618      1.0  0.59958  0.55077  0.29032  1.0000
  H   H619      1.0  0.91194  0.68458  0.20034  1.0000
  H   H620      1.0  0.56339  0.56755  0.11115  1.0000
  H   H621      1.0  0.67905  0.52123  0.32329  1.0000
  H   H622      1.0  0.85536  0.58014  0.12022  1.0000
  H   H623      1.0  0.84540  0.59675  0.17028  1.0000
  H   H624      1.0  0.89897  0.58329  0.15984  1.0000
  N   N18       1.0  0.97987  0.75152  0.17183  1.0000
  C   C357      1.0  0.52672  0.89273  0.04745  1.0000
  H   H625      1.0  0.62440  0.53647  0.17054  1.0000
  H   H626      1.0  0.88904  0.67650  0.12509  1.0000
  H   H627      1.0  0.96473  0.67311  0.18854  1.0000
  C   C358      1.0  0.72575  0.69949  0.30918  1.0000
  H   H628      1.0  0.86388  0.77918  0.11859  1.0000
  H   H629      1.0  0.70523  0.71941  0.29786  1.0000
  H   H630      1.0  0.76596  0.57041  0.28217  1.0000
  H   H631      1.0  0.53976  0.84192  0.21628  1.0000
  H   H632      1.0  0.54085  0.61562  0.22389  1.0000
  H   H633      1.0  0.63053  0.97944  0.04257  1.0000
  Fe  Fe37      1.0  0.62103  0.71559  0.02905  1.0000
  H   H634      1.0  0.94260  0.66316  0.11605  1.0000
  N   N19       1.0  0.61782  0.53860  0.04658  1.0000
  Fe  Fe38      1.0  0.86513  0.52554  0.29362  1.0000
  H   H635      1.0  0.90647  0.78311  0.20361  1.0000
  H   H636      1.0  0.90141  0.83881  0.14873  1.0000
  H   H637      1.0  0.51597  0.88146  0.13150  1.0000
  C   C359      1.0  0.52626  0.85395  0.11580  1.0000
  C   C360      1.0  0.58557  0.51788  0.31265  1.0000
  C   C361      1.0  0.56384  0.52979  0.03402  1.0000
  H   H638      1.0  0.57377  0.55360  0.18163  1.0000
  H   H639      1.0  0.72920  0.62327  0.05612  1.0000
  H   H640      1.0  0.65063  0.60781  0.08574  1.0000
  H   H641      1.0  0.96469  0.76652  0.23248  1.0000
  H   H642      1.0  0.66324  0.55665  0.10161  1.0000
  H   H643      1.0  0.59584  0.91763  0.08811  1.0000
  H   H644      1.0  0.56320  0.56788  0.03742  1.0000
  H   H645      1.0  0.76195  0.59443  0.23342  1.0000
  S   S78       1.0  0.68472  0.80037  0.34250  1.0000
  H   H646      1.0  0.98848  0.59780  0.19573  1.0000
  C   C362      1.0  0.70371  0.66287  0.34066  1.0000
  H   H647      1.0  0.72736  0.56690  0.03166  1.0000
  C   C363      1.0  0.55942  0.88070  0.07837  1.0000
  H   H648      1.0  0.80079  0.63063  0.35109  1.0000
  C   C364      1.0  0.71830  0.59963  0.02804  1.0000
  C   C365      1.0  0.99922  0.77610  0.21260  1.0000
  H   H649      1.0  0.50679  0.91096  0.06413  1.0000
  H   H650      1.0  0.55589  0.99672  0.07098  1.0000
  H   H651      1.0  0.50486  0.75587  0.25429  1.0000
  H   H652      1.0  0.00134  0.60573  0.12202  1.0000
  H   H653      1.0  0.50714  0.75492  0.18048  1.0000
  H   H654      1.0  0.80770  0.81445  0.34892  1.0000
  C   C366      1.0  0.60009  0.98147  0.02357  1.0000
  H   H655      1.0  0.70919  0.88334  0.02655  1.0000
  Fe  Fe39      1.0  0.64445  0.82022  0.39197  1.0000
  H   H656      1.0  0.88058  0.77985  0.58348  1.0000
  S   S79       1.0  0.58829  0.73436  0.40804  1.0000
  Fe  Fe40      1.0  0.78881  0.58459  0.62188  1.0000
  S   S80       1.0  0.82591  0.53768  0.64489  1.0000
  S   S81       1.0  0.77640  0.59687  0.55667  1.0000
  H   H657      1.0  0.71102  0.74236  0.55326  1.0000
  H   H658      1.0  0.94739  0.69521  0.64565  1.0000
  N   N20       1.0  0.51028  0.89404  0.67427  1.0000
  S   S82       1.0  0.83347  0.65361  0.66395  1.0000
  C   C367      1.0  0.53504  0.99416  0.68056  1.0000
  H   H659      1.0  0.73509  0.51908  0.42648  1.0000
  S   S83       1.0  0.93783  0.58734  0.43406  1.0000
  C   C368      1.0  0.89440  0.59347  0.46760  1.0000
  C   C369      1.0  0.90094  0.58931  0.50869  1.0000
  C   C370      1.0  0.86545  0.59132  0.53627  1.0000
  C   C371      1.0  0.82332  0.59774  0.52284  1.0000
  C   C372      1.0  0.81771  0.60363  0.48178  1.0000
  C   C373      1.0  0.85325  0.60157  0.45418  1.0000
  H   H660      1.0  0.93314  0.58373  0.51910  1.0000
  H   H661      1.0  0.87057  0.58772  0.56788  1.0000
  H   H662      1.0  0.81622  0.79569  0.54602  1.0000
  H   H663      1.0  0.84835  0.60559  0.42257  1.0000
  H   H664      1.0  0.56096  0.87010  0.61063  1.0000
  C   C374      1.0  0.68135  0.79520  0.53943  1.0000
  C   C375      1.0  0.62865  0.89496  0.48434  1.0000
  H   H665      1.0  0.94844  0.55309  0.65449  1.0000
  H   H666      1.0  0.59716  0.86306  0.46709  1.0000
  C   C376      1.0  0.65669  0.96182  0.53769  1.0000
  H   H667      1.0  0.52044  0.89304  0.58661  1.0000
  C   C377      1.0  0.51928  0.85991  0.60415  1.0000
  H   H668      1.0  0.85914  0.83871  0.38666  1.0000
  H   H669      1.0  0.60814  0.55647  0.48234  1.0000
  H   H670      1.0  0.66306  0.80537  0.51416  1.0000
  N   N21       1.0  0.75482  0.73606  0.47778  1.0000
  C   C378      1.0  0.70972  0.68639  0.45841  1.0000
  C   C379      1.0  0.79729  0.76535  0.44638  1.0000
  C   C380      1.0  0.77898  0.78255  0.40824  1.0000
  H   H671      1.0  0.83122  0.77136  0.36725  1.0000
  C   C381      1.0  0.82208  0.80302  0.37592  1.0000
  H   H672      1.0  0.79392  0.69389  0.49926  1.0000
  H   H673      1.0  0.68048  0.69574  0.44424  1.0000
  H   H674      1.0  0.72519  0.67253  0.43342  1.0000
  H   H675      1.0  0.81474  0.74030  0.43691  1.0000
  H   H676      1.0  0.83086  0.80299  0.45860  1.0000
  H   H677      1.0  0.76977  0.81278  0.50015  1.0000
  H   H678      1.0  0.71532  0.78167  0.46688  1.0000
  H   H679      1.0  0.75005  0.69689  0.53451  1.0000
  H   H680      1.0  0.77104  0.81551  0.41528  1.0000
  H   H681      1.0  0.74215  0.74911  0.39531  1.0000
  H   H682      1.0  0.60198  0.60622  0.45394  1.0000
  H   H683      1.0  0.64290  0.57984  0.43542  1.0000
  H   H684      1.0  0.53487  0.54787  0.37155  1.0000
  C   C382      1.0  0.96950  0.54414  0.63079  1.0000
  H   H685      1.0  0.51941  0.98801  0.54359  1.0000
  C   C383      1.0  0.73036  0.63712  0.35501  1.0000
  H   H686      1.0  0.78521  0.60866  0.47116  1.0000
  H   H687      1.0  0.71364  0.60891  0.37942  1.0000
  C   C384      1.0  0.82754  0.76726  0.53341  1.0000
  H   H688      1.0  0.71774  0.83214  0.54951  1.0000
  H   H689      1.0  0.85930  0.71823  0.55680  1.0000
  S   S84       1.0  0.71671  0.54272  0.66142  1.0000
  C   C385      1.0  0.67801  0.63594  0.48503  1.0000
  S   S85       1.0  0.70024  0.88046  0.43807  1.0000
  H   H690      1.0  0.66340  0.64491  0.51288  1.0000
  H   H691      1.0  0.56007  0.96666  0.46749  1.0000
  C   C386      1.0  0.68201  0.91115  0.47597  1.0000
  Fe  Fe41      1.0  0.92162  0.58871  0.36804  1.0000
  C   C387      1.0  0.61614  0.92013  0.51518  1.0000
  H   H692      1.0  0.59543  0.92673  0.66706  1.0000
  H   H693      1.0  0.95234  0.70029  0.54155  1.0000
  H   H694      1.0  0.86226  0.78924  0.51322  1.0000
  C   C388      1.0  0.84628  0.74607  0.56803  1.0000
  H   H695      1.0  0.57494  0.90758  0.52136  1.0000
  C   C389      1.0  0.99041  0.58952  0.60020  1.0000
  C   C390      1.0  0.98837  0.70730  0.65253  1.0000
  C   C391      1.0  0.51830  0.94433  0.65400  1.0000
  H   H696      1.0  0.65233  0.77984  0.56453  1.0000
  H   H697      1.0  0.70390  0.61925  0.49348  1.0000
  C   C392      1.0  0.72249  0.95258  0.49872  1.0000
  C   C393      1.0  0.77982  0.72071  0.51116  1.0000
  H   H698      1.0  0.96759  0.76871  0.54087  1.0000
  H   H699      1.0  0.65717  0.71713  0.51706  1.0000
  C   C394      1.0  0.69500  0.75261  0.52669  1.0000
  H   H700      1.0  0.81365  0.72460  0.59015  1.0000
  C   C395      1.0  0.73546  0.77303  0.49180  1.0000
  C   C396      1.0  0.62981  0.59202  0.46271  1.0000
  H   H701      1.0  0.95688  0.59447  0.58949  1.0000
  C   C397      1.0  0.70998  0.97799  0.52930  1.0000
  Fe  Fe42      1.0  0.53344  0.73762  0.36201  1.0000
  H   H702      1.0  0.54978  0.95778  0.63067  1.0000
  H   H703      1.0  0.76385  0.96527  0.49250  1.0000
  C   C398      1.0  0.97105  0.73772  0.52367  1.0000
  C   C399      1.0  0.99998  0.68137  0.68283  1.0000
  S   S86       1.0  0.64351  0.64923  0.36318  1.0000
  H   H704      1.0  0.94911  0.73062  0.49497  1.0000
  S   S87       1.0  0.63925  0.99326  0.57554  1.0000
  H   H705      1.0  0.51676  0.81825  0.54929  1.0000
  H   H706      1.0  0.65420  0.99390  0.44084  1.0000
  H   H707      1.0  0.93986  0.50681  0.61551  1.0000
  N   N22       1.0  0.00167  0.50386  0.68611  1.0000
  Fe  Fe43      1.0  0.62428  0.71504  0.35578  1.0000
  Fe  Fe44      1.0  0.56485  0.72857  0.95711  1.0000
  S   S88       1.0  0.56604  0.65737  0.98283  1.0000
  Fe  Fe45      1.0  0.68336  0.80139  0.96689  1.0000
  H   H708      1.0  0.77099  0.82859  0.70944  1.0000
  S   S89       1.0  0.75009  0.88235  0.94829  1.0000
  Fe  Fe46      1.0  0.64028  0.68448  0.94616  1.0000
  S   S90       1.0  0.66139  0.62685  0.91716  1.0000
  S   S91       1.0  0.63376  0.75001  0.91610  1.0000
  H   H709      1.0  0.61886  0.81935  0.84798  1.0000
  H   H710      1.0  0.94096  0.53228  0.79147  1.0000
  S   S92       1.0  0.79882  0.56382  0.73587  1.0000
  S   S93       1.0  0.72517  0.65261  0.73350  1.0000
  C   C400      1.0  0.68043  0.63600  0.86637  1.0000
  C   C401      1.0  0.70998  0.61335  0.85150  1.0000
  C   C402      1.0  0.72386  0.61801  0.81081  1.0000
  C   C403      1.0  0.70818  0.64538  0.78469  1.0000
  C   C404      1.0  0.67822  0.66765  0.79950  1.0000
  C   C405      1.0  0.66449  0.66314  0.84023  1.0000
  H   H711      1.0  0.72273  0.59257  0.87154  1.0000
  H   H712      1.0  0.74694  0.60072  0.79970  1.0000
  H   H713      1.0  0.66511  0.68795  0.77926  1.0000
  H   H714      1.0  0.64084  0.67983  0.85121  1.0000
  S   S94       1.0  0.69554  0.73751  0.99417  1.0000
  C   C406      1.0  0.75069  0.93387  0.97635  1.0000
  C   C407      1.0  0.61300  0.92449  0.95144  1.0000
  N   N23       1.0  0.78199  0.86769  0.83105  1.0000
  C   C408      1.0  0.72217  0.83725  0.83688  1.0000
  C   C409      1.0  0.80870  0.84848  0.86049  1.0000
  C   C410      1.0  0.80123  0.92593  0.83990  1.0000
  C   C411      1.0  0.79766  0.86397  0.78863  1.0000
  C   C412      1.0  0.77582  0.80710  0.77133  1.0000
  C   C413      1.0  0.68926  0.85338  0.80947  1.0000
  Fe  Fe47      1.0  0.86470  0.60317  0.69051  1.0000
  C   C414      1.0  0.77767  0.78850  0.87271  1.0000
  C   C415      1.0  0.81221  0.77329  0.89773  1.0000
  C   C416      1.0  0.62934  0.81677  0.81640  1.0000
  H   H715      1.0  0.79730  0.65188  0.00342  1.0000
  H   H716      1.0  0.71267  0.84192  0.86837  1.0000
  H   H717      1.0  0.70546  0.79362  0.83273  1.0000
  H   H718      1.0  0.84869  0.85783  0.84925  1.0000
  H   H719      1.0  0.81661  0.87047  0.88939  1.0000
  H   H720      1.0  0.78583  0.92982  0.86956  1.0000
  H   H721      1.0  0.78520  0.94284  0.81762  1.0000
  H   H722      1.0  0.78596  0.88662  0.76802  1.0000
  H   H723      1.0  0.84183  0.88377  0.78596  1.0000
  H   H724      1.0  0.73183  0.78286  0.77388  1.0000
  H   H725      1.0  0.79432  0.78646  0.78675  1.0000
  H   H726      1.0  0.69838  0.89478  0.81591  1.0000
  H   H727      1.0  0.69737  0.85041  0.77744  1.0000
  H   H728      1.0  0.55042  0.56038  0.88421  1.0000
  H   H729      1.0  0.74862  0.67077  0.99040  1.0000
  H   H730      1.0  0.74268  0.78036  0.89137  1.0000
  H   H731      1.0  0.76311  0.76164  0.84653  1.0000
  H   H732      1.0  0.78821  0.73057  0.90670  1.0000
  H   H733      1.0  0.84712  0.77866  0.88015  1.0000
  H   H734      1.0  0.82626  0.79807  0.92529  1.0000
  H   H735      1.0  0.61718  0.77455  0.80944  1.0000
  H   H736      1.0  0.64309  0.86930  0.94494  1.0000
  H   H737      1.0  0.60654  0.82914  0.79670  1.0000
  S   S95       1.0  0.61361  0.78476  0.00617  1.0000
  H   H738      1.0  0.64404  0.90234  0.73449  1.0000
  H   H739      1.0  0.59639  0.54015  0.80888  1.0000
  H   H740      1.0  0.64691  0.54056  0.74395  1.0000
  C   C417      1.0  0.99085  0.53297  0.71925  1.0000
  H   H741      1.0  0.53989  0.96532  0.96310  1.0000
  H   H742      1.0  0.57913  0.96010  0.73670  1.0000
  C   C418      1.0  0.77453  0.98588  0.96077  1.0000
  H   H743      1.0  0.74708  0.61401  0.96637  1.0000
  C   C419      1.0  0.72639  0.92298  0.01392  1.0000
  H   H744      1.0  0.55206  0.85583  0.98475  1.0000
  H   H745      1.0  0.58356  0.85141  0.91635  1.0000
  C   C420      1.0  0.65859  0.57763  0.01727  1.0000
  C   C421      1.0  0.75491  0.63628  0.99500  1.0000
  H   H746      1.0  0.83355  0.83218  0.72248  1.0000
  H   H747      1.0  0.65268  0.95966  0.95845  1.0000
  H   H748      1.0  0.65144  0.95320  0.76949  1.0000
  N   N24       1.0  0.55677  0.92613  0.01160  1.0000
  Fe  Fe48      1.0  0.76375  0.60856  0.70556  1.0000
  C   C422      1.0  0.63950  0.93801  0.73848  1.0000
  C   C423      1.0  0.58170  0.92378  0.73118  1.0000
  H   H749      1.0  0.64734  0.90605  0.90038  1.0000
  C   C424      1.0  0.51838  0.92893  0.98214  1.0000
  S   S96       1.0  0.94867  0.62875  0.71014  1.0000
  H   H750      1.0  0.59129  0.93826  0.93202  1.0000
  C   C425      1.0  0.62221  0.88530  0.92683  1.0000
  H   H751      1.0  0.88270  0.95124  0.86203  1.0000
  H   H752      1.0  0.65272  0.55894  0.98723  1.0000
  H   H753      1.0  0.77414  0.76834  0.71532  1.0000
  C   C426      1.0  0.58270  0.89838  0.99100  1.0000
  H   H754      1.0  0.66676  0.97001  0.71754  1.0000
  C   C427      1.0  0.86273  0.96410  0.83996  1.0000
  H   H755      1.0  0.60560  0.52461  0.87477  1.0000
  H   H756      1.0  0.55658  0.89364  0.75396  1.0000
  C   C428      1.0  0.78960  0.80952  0.72695  1.0000
  C   C429      1.0  0.54628  0.51003  0.99051  1.0000
  H   H757      1.0  0.57194  0.54144  0.96868  1.0000
  H   H758      1.0  0.61283  0.89688  0.01076  1.0000
  C   C430      1.0  0.98520  0.55185  0.79269  1.0000
  H   H759      1.0  0.99703  0.54764  0.82349  1.0000
  H   H760      1.0  0.79308  0.99434  0.93163  1.0000
  H   H761      1.0  0.87980  0.96564  0.80997  1.0000
  H   H762      1.0  0.65301  0.61288  0.01315  1.0000
  H   H763      1.0  0.54912  0.57533  0.83205  1.0000
  H   H764      1.0  0.94810  0.52223  0.71898  1.0000
  C   C431      1.0  0.52469  0.54999  0.85731  1.0000
  H   H765      1.0  0.67334  0.51089  0.90730  1.0000
  H   H766      1.0  0.50926  0.98514  0.70724  1.0000
  H   H767      1.0  0.56202  0.86186  0.68810  1.0000
  C   C432      1.0  0.56300  0.90090  0.68843  1.0000
  H   H768      1.0  0.00267  0.59517  0.78607  1.0000
