data_image0
_chemical_formula_structural       FeS2H3FeSCHSNCHFeSC2H3CH4C7H5CHC3HCH3C3H3C2NH3C3HSHFeHC3H5SH2FeNHCHCH3C5S2H4SH2CH3C2H2CHCH5SH2CH3CHCH3CHCHSCH3NH3C2HSH2FeH3C2H5NCH2NC4H3CSHSFeSHFeSCFeSFeS3HSCH3C6H5CHCH2C2H10CH4C2H3CHSHCH3NH8CH4CH2CHCH2SCSH2CHC2HFeSHCHCHC4NHCFeCHCH2C2HCHCHC3H3CH2CH5C2H3C2H3CH3CHCHCHCH4CHC2H11C3HCH2CH9SC2HC2H2CHSCH2NH2CHC3H5C6H5C2HCH2C6HFeCH2CH4CHSH3CH4C2HC2H2CSNH3C2H4SHCH2CH2C4H4NHCHSH4CHCFeH4CFeCFeH2C4SCHSHC2HC2H3C2H5SH3SHNCHSH2CHCH3FeH6CHFeCH6SCSC2H2FeC2H4CH5FeCHCH3SHCFeSH2SHSCFeSHFeSFeS2H2CHS2H3C3HCH5CFeHCHC4H5C6HCH5CHCHSH3CH2CHC2H6SC3H3CH2C2SH4CH3NH3FeHCHCH2CHC2HFeSCFeS2FeSFeCS2CSCS2FeSCHSCS2HSFeHCHCHC3FeH2C6H4C6H4CH3NCH2C3HCHC2H3CH9CH3CH2CH2CH3C2HCSC2FeHC3HC2H2CHCNH2C2H9C2H6CH3CH2CH3C2H2CHCNH2CH4CH11CH2NHCH2CH2CSHCHCFeH4CHC3H5CH4CH3C2HFeS2FeS2FeSFeS3HCH4SC6H7CH4C4H4C5HC2H3C8H2C2H6FeH3C2SH3SHCHCH3CSH2NC2H2CHNHCHFeSHCHSHSH2CH4C2HC3H4CH9C2H2C2H3C3H7CH2FeH4CHC3H2C2H2NH2CHCHCH5C2HFeS2FeS2FeSFeS4H6C2HC4HCHC5H7C6H7CH4SCH4CHC2H3CH4NHCH2CHFeH4C2HC3H11CH3CH7CHC3HC3SHCH3CHCH8CSHSCH2CH2CHC2H2CH2NCH3C3H2CH4CH3NFeC2SC2H4C2SH2FeCH5CH2SH2S2HFeS2FeSCFeSFeHS3C6H6C2H2C6H6CH5CNH3CHCH6CHNCHCHCH4CH9CH2CH2C2SHCH9SCH3C3H2C2H4CHFeH2CHNCH4CHSFeCH3CH2CHCH4CH3CFeH2CH3NC4HC3H2C2H7CHCHCH3C2H2CH2CH2SHCSH2SC2H3CHNH4C3H2CH3CHNSH2CH2CH3CHC2HFeS2FeHSFeHFeHS2C3HCHCHC6H4FeH4CH3CH4CHCHC2H2C2HCHNH2SH12CHCSH3C2HCHCH2CH2CHCH5NC8H3SH12SCHCH8C2H2CH6SHC2H5CH5C3H8FeSH2CHSH3SFeCSC4HSCSHCNSH3C5H7CHC6H4CH2CH4NH2CH3NC5HC2H13FeCH3CFeHC2H7CH4CH3CHC4H2C2SHCHSCSH6FeH3C2HFeC2H2CFeCHC2HC2HSHC2H2SH2CH3C3H11NHC3H3CS2CHFeSCH2S2HFeH2FeH2NHC2S2HC6H3CHC6H2CHCHCSC2H3NH3CSHCHCH3CH3C3H4CH2CH2FeH6CSH3CH3C2FeH6FeCSHCH6SH2CH2C4H4FeHSC3HSHCHCSHSHCH4SH4CH2C8H2CH4C2H4CHC2H2C2HSH4CH2Fe2H3SHCHC2H3CHC2SFeH2CH3SH2C2H3CH2CH3SHC2HCH2C2HC2HFeH2CH4C2HC2H2CHCH2NH2FeH3C2HCSCH9C2NHCHNC2H5C2H3
_chemical_formula_sum              "Fe80 S160 H1280 C720 N40"
_cell_length_a       38.3609
_cell_length_b       38.3147
_cell_length_c       34.8608
_cell_angle_alpha    90.0718
_cell_angle_beta     90.1638
_cell_angle_gamma    89.8817

_space_group_name_H-M_alt    "P 1"
_space_group_IT_number       1

loop_
  _space_group_symop_operation_xyz
  'x, y, z'

loop_
  _atom_site_type_symbol
  _atom_site_label
  _atom_site_symmetry_multiplicity
  _atom_site_fract_x
  _atom_site_fract_y
  _atom_site_fract_z
  _atom_site_occupancy
  Fe  Fe1       1.0  0.05082  0.28830  0.08647  1.0000
  S   S1        1.0  0.07095  0.24327  0.12159  1.0000
  S   S2        1.0  0.07057  0.29630  0.02595  1.0000
  H   H1        1.0  0.07669  0.33809  0.47802  1.0000
  H   H2        1.0  0.02637  0.32054  0.44800  1.0000
  H   H3        1.0  0.16125  0.03993  0.47159  1.0000
  Fe  Fe2       1.0  0.06173  0.27947  0.17173  1.0000
  S   S3        1.0  0.09523  0.28612  0.22461  1.0000
  C   C1        1.0  0.02376  0.39052  0.28435  1.0000
  H   H4        1.0  0.01621  0.47935  0.44152  1.0000
  S   S4        1.0  0.04579  0.32561  0.13604  1.0000
  N   N1        1.0  0.08049  0.18443  0.99174  1.0000
  C   C2        1.0  0.02106  0.45321  0.29653  1.0000
  H   H5        1.0  0.08129  0.47748  0.10388  1.0000
  Fe  Fe3       1.0  0.18401  0.45688  0.30161  1.0000
  S   S5        1.0  0.17074  0.43198  0.24471  1.0000
  C   C3        1.0  0.14779  0.22583  0.06316  1.0000
  C   C4        1.0  0.27539  0.37324  0.02887  1.0000
  H   H6        1.0  0.13845  0.49643  0.01940  1.0000
  H   H7        1.0  0.07752  0.44900  0.30914  1.0000
  H   H8        1.0  0.15239  0.39014  0.05933  1.0000
  C   C5        1.0  0.09345  0.35148  0.40753  1.0000
  H   H9        1.0  0.02393  0.30181  0.26026  1.0000
  H   H10       1.0  0.12533  0.38272  0.36889  1.0000
  H   H11       1.0  0.14410  0.21943  0.00221  1.0000
  H   H12       1.0  0.04977  0.42906  0.34397  1.0000
  C   C6        1.0  0.07250  0.46603  0.02818  1.0000
  C   C7        1.0  0.14867  0.39195  0.24049  1.0000
  C   C8        1.0  0.13680  0.38157  0.20415  1.0000
  C   C9        1.0  0.11996  0.34941  0.19920  1.0000
  C   C10       1.0  0.11516  0.32720  0.23049  1.0000
  C   C11       1.0  0.12692  0.33761  0.26692  1.0000
  C   C12       1.0  0.14339  0.37011  0.27202  1.0000
  H   H13       1.0  0.14114  0.39822  0.17959  1.0000
  H   H14       1.0  0.11188  0.34128  0.17089  1.0000
  H   H15       1.0  0.12367  0.32025  0.29106  1.0000
  H   H16       1.0  0.15297  0.37781  0.29996  1.0000
  H   H17       1.0  0.11645  0.44763  0.99339  1.0000
  C   C13       1.0  0.26601  0.44753  0.00534  1.0000
  H   H18       1.0  0.13527  0.25204  0.06309  1.0000
  C   C14       1.0  0.04634  0.08241  0.06309  1.0000
  C   C15       1.0  0.06508  0.10916  0.08146  1.0000
  C   C16       1.0  0.04772  0.13791  0.09798  1.0000
  H   H19       1.0  0.11426  0.35036  0.42977  1.0000
  C   C17       1.0  0.15833  0.47541  0.11000  1.0000
  H   H20       1.0  0.09321  0.10757  0.08315  1.0000
  H   H21       1.0  0.06242  0.15812  0.11243  1.0000
  H   H22       1.0  0.27854  0.11041  0.45820  1.0000
  C   C18       1.0  0.11661  0.34878  0.04552  1.0000
  C   C19       1.0  0.14144  0.37444  0.03660  1.0000
  C   C20       1.0  0.06767  0.38156  0.41669  1.0000
  H   H23       1.0  0.22289  0.03916  0.44069  1.0000
  H   H24       1.0  0.10832  0.34511  0.07488  1.0000
  H   H25       1.0  0.28339  0.42405  0.45324  1.0000
  C   C21       1.0  0.21759  0.50314  0.18663  1.0000
  C   C22       1.0  0.04255  0.17658  0.99917  1.0000
  N   N2        1.0  0.02069  0.42585  0.26530  1.0000
  H   H26       1.0  0.28597  0.49882  0.98968  1.0000
  H   H27       1.0  0.17649  0.22950  0.06249  1.0000
  H   H28       1.0  0.02798  0.48245  0.14769  1.0000
  C   C23       1.0  0.02113  0.20667  0.01739  1.0000
  C   C24       1.0  0.08743  0.46763  0.19363  1.0000
  C   C25       1.0  0.05046  0.42977  0.23733  1.0000
  H   H29       1.0  0.30199  0.10088  0.37433  1.0000
  S   S6        1.0  0.12882  0.46838  0.43247  1.0000
  H   H30       1.0  0.00668  0.40515  0.48396  1.0000
  Fe  Fe4       1.0  0.16697  0.47815  0.38400  1.0000
  H   H31       1.0  0.11332  0.45784  0.20275  1.0000
  C   C26       1.0  0.28682  0.44655  0.47304  1.0000
  C   C27       1.0  0.26609  0.48727  0.00895  1.0000
  C   C28       1.0  0.15197  0.37982  0.99851  1.0000
  H   H32       1.0  0.07157  0.40093  0.99216  1.0000
  H   H33       1.0  0.09204  0.35692  0.34526  1.0000
  H   H34       1.0  0.04000  0.48466  0.22015  1.0000
  H   H35       1.0  0.14091  0.21197  0.09006  1.0000
  H   H36       1.0  0.33060  0.11214  0.41392  1.0000
  S   S7        1.0  0.06957  0.04668  0.04319  1.0000
  H   H37       1.0  0.07436  0.41642  0.24831  1.0000
  H   H38       1.0  0.04405  0.41598  0.21004  1.0000
  Fe  Fe5       1.0  0.01465  0.22837  0.12781  1.0000
  N   N3        1.0  0.30568  0.39285  0.01190  1.0000
  H   H39       1.0  0.24483  0.43766  0.02392  1.0000
  C   C29       1.0  0.02483  0.40881  0.45951  1.0000
  H   H40       1.0  0.04377  0.35904  0.23604  1.0000
  C   C30       1.0  0.30162  0.43172  0.01747  1.0000
  H   H41       1.0  0.08373  0.40519  0.42284  1.0000
  H   H42       1.0  0.13850  0.48792  0.12860  1.0000
  H   H43       1.0  0.02066  0.47993  0.28442  1.0000
  C   C31       1.0  0.27841  0.09566  0.43081  1.0000
  C   C32       1.0  0.13618  0.20474  0.02815  1.0000
  C   C33       1.0  0.23505  0.36154  0.08491  1.0000
  C   C34       1.0  0.26825  0.38006  0.07205  1.0000
  C   C35       1.0  0.11139  0.35730  0.36901  1.0000
  S   S8        1.0  0.20139  0.43626  0.35883  1.0000
  S   S9        1.0  0.22756  0.49566  0.29793  1.0000
  H   H44       1.0  0.08391  0.22331  0.03672  1.0000
  H   H45       1.0  0.04419  0.46992  0.02246  1.0000
  H   H46       1.0  0.22374  0.47822  0.17178  1.0000
  H   H47       1.0  0.15058  0.17958  0.02888  1.0000
  S   S10       1.0  0.00729  0.25998  0.18169  1.0000
  H   H48       1.0  0.12413  0.44356  0.07563  1.0000
  H   H49       1.0  0.04468  0.42823  0.46914  1.0000
  C   C36       1.0  0.14289  0.46499  0.07111  1.0000
  H   H50       1.0  0.23742  0.33289  0.08074  1.0000
  H   H51       1.0  0.25175  0.09765  0.41835  1.0000
  H   H52       1.0  0.02454  0.33197  0.37993  1.0000
  C   C37       1.0  0.05242  0.45168  0.32463  1.0000
  C   C38       1.0  0.33886  0.38137  0.03163  1.0000
  H   H53       1.0  0.02044  0.48144  0.07894  1.0000
  H   H54       1.0  0.09050  0.49467  0.18298  1.0000
  C   C39       1.0  0.10260  0.32796  0.01639  1.0000
  H   H55       1.0  0.25104  0.37864  0.01232  1.0000
  C   C40       1.0  0.06213  0.46748  0.22743  1.0000
  H   H56       1.0  0.16457  0.45390  0.05393  1.0000
  H   H57       1.0  0.31673  0.05405  0.43729  1.0000
  H   H58       1.0  0.22697  0.07435  0.47354  1.0000
  H   H59       1.0  0.27955  0.04249  0.41069  1.0000
  H   H60       1.0  0.04915  0.38805  0.29959  1.0000
  S   S11       1.0  0.14591  0.49468  0.32687  1.0000
  H   H61       1.0  0.09077  0.17996  0.05278  1.0000
  H   H62       1.0  0.30654  0.43922  0.04786  1.0000
  C   C41       1.0  0.01613  0.34685  0.44019  1.0000
  H   H63       1.0  0.09781  0.13264  0.00734  1.0000
  H   H64       1.0  0.16840  0.45182  0.12494  1.0000
  H   H65       1.0  0.01512  0.42736  0.40013  1.0000
  C   C42       1.0  0.01136  0.14008  0.09653  1.0000
  H   H66       1.0  0.07363  0.44314  0.04776  1.0000
  C   C43       1.0  0.30341  0.11345  0.40300  1.0000
  H   H67       1.0  0.08000  0.32588  0.40680  1.0000
  H   H68       1.0  0.26489  0.40823  0.07829  1.0000
  H   H69       1.0  0.21231  0.37127  0.06831  1.0000
  C   C44       1.0  0.02564  0.32442  0.28015  1.0000
  H   H70       1.0  0.29601  0.14133  0.39974  1.0000
  C   C45       1.0  0.28795  0.05665  0.43705  1.0000
  H   H71       1.0  0.13072  0.33619  0.36385  1.0000
  S   S12       1.0  0.32820  0.03258  0.34617  1.0000
  C   C46       1.0  0.02232  0.35831  0.25735  1.0000
  H   H72       1.0  0.23032  0.36679  0.11582  1.0000
  H   H73       1.0  0.27958  0.34463  0.02613  1.0000
  H   H74       1.0  0.05363  0.38773  0.38989  1.0000
  N   N4        1.0  0.04263  0.37491  0.44921  1.0000
  H   H75       1.0  0.29006  0.37001  0.08990  1.0000
  H   H76       1.0  0.16004  0.02446  0.37898  1.0000
  H   H77       1.0  0.07580  0.47962  0.25218  1.0000
  C   C47       1.0  0.05387  0.48425  0.34988  1.0000
  C   C48       1.0  0.09624  0.19810  0.02863  1.0000
  H   H78       1.0  0.02727  0.20850  0.04849  1.0000
  S   S13       1.0  0.29864  0.45744  0.36933  1.0000
  H   H79       1.0  0.07785  0.45112  0.16966  1.0000
  H   H80       1.0  0.05121  0.32316  0.29513  1.0000
  Fe  Fe6       1.0  0.24318  0.47793  0.35720  1.0000
  H   H81       1.0  0.04013  0.15372  0.01868  1.0000
  H   H82       1.0  0.07498  0.48149  0.37151  1.0000
  H   H83       1.0  0.02879  0.48820  0.36515  1.0000
  C   C49       1.0  0.08884  0.45509  0.98941  1.0000
  C   C50       1.0  0.00997  0.08446  0.06176  1.0000
  H   H84       1.0  0.32182  0.44581  0.00095  1.0000
  H   H85       1.0  0.29641  0.46931  0.45649  1.0000
  H   H86       1.0  0.15498  0.40931  0.47905  1.0000
  H   H87       1.0  0.20637  0.49670  0.21502  1.0000
  H   H88       1.0  0.02735  0.23218  0.00409  1.0000
  N   N5        1.0  0.08777  0.49822  0.04684  1.0000
  C   C51       1.0  0.12707  0.49646  0.04876  1.0000
  H   H89       1.0  0.27155  0.49525  0.03901  1.0000
  H   H90       1.0  0.24012  0.49764  0.00048  1.0000
  N   N6        1.0  0.27192  0.03992  0.47193  1.0000
  C   C52       1.0  0.06407  0.36379  0.48355  1.0000
  C   C53       1.0  0.23298  0.04612  0.46976  1.0000
  C   C54       1.0  0.03396  0.50463  0.09086  1.0000
  C   C55       1.0  0.07402  0.50107  0.08712  1.0000
  H   H91       1.0  0.18034  0.49379  0.10583  1.0000
  H   H92       1.0  0.33875  0.38991  0.06214  1.0000
  H   H93       1.0  0.04001  0.03043  0.12622  1.0000
  C   C56       1.0  0.08710  0.50528  0.48224  1.0000
  S   S14       1.0  0.23070  0.00676  0.36035  1.0000
  H   H94       1.0  0.26101  0.45348  0.48526  1.0000
  S   S15       1.0  0.18153  0.41365  0.98781  1.0000
  Fe  Fe7       1.0  0.19113  0.42364  0.92481  1.0000
  S   S16       1.0  0.22146  0.38440  0.89132  1.0000
  H   H95       1.0  0.16034  0.44889  0.71650  1.0000
  Fe  Fe8       1.0  0.18225  0.47168  0.85515  1.0000
  S   S17       1.0  0.21223  0.43536  0.81639  1.0000
  C   C57       1.0  0.06947  0.23881  0.89673  1.0000
  Fe  Fe9       1.0  0.18132  0.39298  0.84522  1.0000
  S   S18       1.0  0.15528  0.34487  0.82072  1.0000
  Fe  Fe10      1.0  0.24982  0.43040  0.86653  1.0000
  S   S19       1.0  0.30890  0.42513  0.85977  1.0000
  S   S20       1.0  0.14898  0.42940  0.88074  1.0000
  S   S21       1.0  0.22182  0.46964  0.90331  1.0000
  H   H96       1.0  0.09058  0.36250  0.55810  1.0000
  S   S22       1.0  0.07421  0.34855  0.66209  1.0000
  C   C58       1.0  0.13830  0.35863  0.96949  1.0000
  H   H97       1.0  0.07252  0.45038  0.55793  1.0000
  H   H98       1.0  0.23110  0.07807  0.87390  1.0000
  H   H99       1.0  0.09629  0.44855  0.64222  1.0000
  C   C59       1.0  0.13155  0.34689  0.77750  1.0000
  C   C60       1.0  0.11616  0.31633  0.76314  1.0000
  C   C61       1.0  0.09796  0.31670  0.72812  1.0000
  C   C62       1.0  0.09516  0.34765  0.70716  1.0000
  C   C63       1.0  0.10972  0.37840  0.72205  1.0000
  C   C64       1.0  0.12778  0.37812  0.75721  1.0000
  H   H100      1.0  0.11895  0.29212  0.77881  1.0000
  H   H101      1.0  0.08710  0.29280  0.71680  1.0000
  H   H102      1.0  0.10672  0.40252  0.70652  1.0000
  H   H103      1.0  0.13917  0.40187  0.76841  1.0000
  H   H104      1.0  0.10870  0.48320  0.74294  1.0000
  C   C65       1.0  0.02184  0.13725  0.61256  1.0000
  H   H105      1.0  0.14647  0.36231  0.94008  1.0000
  C   C66       1.0  0.33226  0.46692  0.91979  1.0000
  H   H106      1.0  0.05039  0.46355  0.76335  1.0000
  H   H107      1.0  0.00603  0.41411  0.76850  1.0000
  C   C67       1.0  0.00622  0.35671  0.76107  1.0000
  C   C68       1.0  0.31237  0.43762  0.50530  1.0000
  H   H108      1.0  0.02951  0.02479  0.66818  1.0000
  H   H109      1.0  0.28337  0.03503  0.53258  1.0000
  H   H110      1.0  0.30598  0.47708  0.92124  1.0000
  H   H111      1.0  0.07282  0.26545  0.90889  1.0000
  H   H112      1.0  0.04466  0.38640  0.81711  1.0000
  H   H113      1.0  0.03697  0.46248  0.90057  1.0000
  H   H114      1.0  0.11423  0.49631  0.55904  1.0000
  H   H115      1.0  0.17305  0.06753  0.51173  1.0000
  H   H116      1.0  0.11700  0.42441  0.53273  1.0000
  H   H117      1.0  0.32319  0.13468  0.80800  1.0000
  C   C69       1.0  0.08595  0.13039  0.94659  1.0000
  H   H118      1.0  0.30013  0.41707  0.52323  1.0000
  H   H119      1.0  0.32629  0.40238  0.95519  1.0000
  H   H120      1.0  0.05056  0.05739  0.58077  1.0000
  H   H121      1.0  0.04274  0.40517  0.60025  1.0000
  C   C70       1.0  0.33660  0.07582  0.55034  1.0000
  C   C71       1.0  0.10291  0.44367  0.61163  1.0000
  H   H122      1.0  0.16777  0.08097  0.75030  1.0000
  H   H123      1.0  0.15974  0.41182  0.58503  1.0000
  H   H124      1.0  0.11186  0.20809  0.94724  1.0000
  C   C72       1.0  0.10398  0.09484  0.94347  1.0000
  H   H125      1.0  0.18188  0.50458  0.55750  1.0000
  S   S23       1.0  0.03370  0.26985  0.59953  1.0000
  H   H126      1.0  0.08632  0.23828  0.97326  1.0000
  C   C73       1.0  0.01665  0.39424  0.74896  1.0000
  H   H127      1.0  0.02652  0.33954  0.74855  1.0000
  H   H128      1.0  0.15711  0.02389  0.51985  1.0000
  H   H129      1.0  0.27192  0.06108  0.89122  1.0000
  N   N7        1.0  0.25757  0.04722  0.80812  1.0000
  H   H130      1.0  0.08677  0.38295  0.87247  1.0000
  H   H131      1.0  0.18520  0.44825  0.57212  1.0000
  H   H132      1.0  0.18931  0.41214  0.71210  1.0000
  H   H133      1.0  0.14259  0.46180  0.51835  1.0000
  H   H134      1.0  0.28551  0.08920  0.83631  1.0000
  H   H135      1.0  0.18769  0.49855  0.76788  1.0000
  H   H136      1.0  0.12721  0.15545  0.97692  1.0000
  H   H137      1.0  0.04545  0.39678  0.74993  1.0000
  C   C74       1.0  0.28569  0.05478  0.50930  1.0000
  H   H138      1.0  0.05324  0.34272  0.58024  1.0000
  H   H139      1.0  0.24211  0.01235  0.92343  1.0000
  H   H140      1.0  0.29360  0.32945  0.96689  1.0000
  H   H141      1.0  0.03025  0.28853  0.77064  1.0000
  C   C75       1.0  0.14338  0.43594  0.53257  1.0000
  H   H142      1.0  0.09223  0.14510  0.92013  1.0000
  H   H143      1.0  0.18490  0.03343  0.79544  1.0000
  C   C76       1.0  0.16644  0.41209  0.50818  1.0000
  H   H144      1.0  0.10361  0.31608  0.95601  1.0000
  C   C77       1.0  0.33424  0.11295  0.79074  1.0000
  H   H145      1.0  0.09168  0.33599  0.87137  1.0000
  H   H146      1.0  0.07194  0.11165  0.61231  1.0000
  S   S24       1.0  0.03782  0.17460  0.63739  1.0000
  C   C78       1.0  0.30694  0.38529  0.96942  1.0000
  S   S25       1.0  0.01833  0.26398  0.69156  1.0000
  H   H147      1.0  0.29468  0.35205  0.89963  1.0000
  H   H148      1.0  0.02180  0.34132  0.51833  1.0000
  C   C79       1.0  0.07002  0.42355  0.97231  1.0000
  H   H149      1.0  0.27595  0.03138  0.75180  1.0000
  C   C80       1.0  0.04471  0.10936  0.60455  1.0000
  C   C81       1.0  0.02739  0.49476  0.82991  1.0000
  H   H150      1.0  0.09785  0.07843  0.96884  1.0000
  Fe  Fe11      1.0  0.03458  0.30587  0.65053  1.0000
  S   S26       1.0  0.03077  0.00881  0.94475  1.0000
  H   H151      1.0  0.26851  0.00923  0.85268  1.0000
  C   C82       1.0  0.08595  0.48492  0.72329  1.0000
  H   H152      1.0  0.14671  0.41209  0.65891  1.0000
  C   C83       1.0  0.15777  0.43899  0.57387  1.0000
  H   H153      1.0  0.31782  0.06824  0.75920  1.0000
  C   C84       1.0  0.05230  0.48770  0.74616  1.0000
  C   C85       1.0  0.21044  0.02603  0.49929  1.0000
  C   C86       1.0  0.05828  0.21320  0.92797  1.0000
  C   C87       1.0  0.22896  0.07125  0.79395  1.0000
  N   N8        1.0  0.13705  0.46140  0.60121  1.0000
  H   H154      1.0  0.18306  0.47916  0.63229  1.0000
  C   C88       1.0  0.03266  0.07854  0.58665  1.0000
  Fe  Fe12      1.0  0.01277  0.22891  0.63959  1.0000
  C   C89       1.0  0.24857  0.02941  0.84544  1.0000
  H   H155      1.0  0.10538  0.41472  0.60959  1.0000
  C   C90       1.0  0.00924  0.46519  0.89173  1.0000
  H   H156      1.0  0.04919  0.23996  0.87401  1.0000
  H   H157      1.0  0.33743  0.05123  0.56717  1.0000
  C   C91       1.0  0.03799  0.35425  0.86660  1.0000
  C   C92       1.0  0.06954  0.45450  0.58913  1.0000
  H   H158      1.0  0.32390  0.31575  0.90679  1.0000
  C   C93       1.0  0.16859  0.43082  0.65784  1.0000
  H   H159      1.0  0.02278  0.46874  0.81703  1.0000
  C   C94       1.0  0.07514  0.35786  0.88177  1.0000
  H   H160      1.0  0.05505  0.49397  0.84001  1.0000
  C   C95       1.0  0.24548  0.05375  0.88092  1.0000
  C   C96       1.0  0.26614  0.01954  0.77873  1.0000
  C   C97       1.0  0.31886  0.34343  0.91447  1.0000
  H   H161      1.0  0.19294  0.42341  0.50518  1.0000
  H   H162      1.0  0.19018  0.41808  0.64186  1.0000
  H   H163      1.0  0.03286  0.22254  0.93916  1.0000
  C   C98       1.0  0.08577  0.21150  0.96069  1.0000
  H   H164      1.0  0.05797  0.34300  0.80942  1.0000
  H   H165      1.0  0.08080  0.48029  0.49468  1.0000
  C   C99       1.0  0.17324  0.04035  0.50063  1.0000
  H   H166      1.0  0.25962  0.44108  0.97515  1.0000
  H   H167      1.0  0.07482  0.35728  0.91356  1.0000
  H   H168      1.0  0.04141  0.28640  0.82046  1.0000
  H   H169      1.0  0.02829  0.32827  0.87549  1.0000
  H   H170      1.0  0.01482  0.44034  0.58455  1.0000
  C   C100      1.0  0.13047  0.49751  0.58535  1.0000
  C   C101      1.0  0.32380  0.06878  0.50951  1.0000
  H   H171      1.0  0.05394  0.18746  0.91442  1.0000
  H   H172      1.0  0.09437  0.23029  0.88343  1.0000
  H   H173      1.0  0.23111  0.07464  0.76230  1.0000
  C   C102      1.0  0.11394  0.33256  0.97852  1.0000
  C   C103      1.0  0.03785  0.43366  0.60251  1.0000
  H   H174      1.0  0.23230  0.09798  0.80609  1.0000
  H   H175      1.0  0.22397  0.01453  0.84286  1.0000
  H   H176      1.0  0.08269  0.41610  0.94489  1.0000
  C   C104      1.0  0.16475  0.08407  0.78181  1.0000
  H   H177      1.0  0.20029  0.02750  0.90561  1.0000
  H   H178      1.0  0.05756  0.12531  0.94775  1.0000
  H   H179      1.0  0.22493  0.05380  0.93889  1.0000
  C   C105      1.0  0.29033  0.06837  0.81471  1.0000
  H   H180      1.0  0.26928  0.07709  0.51911  1.0000
  C   C106      1.0  0.22701  0.03565  0.91415  1.0000
  H   H181      1.0  0.31138  0.05152  0.82683  1.0000
  C   C107      1.0  0.06805  0.34490  0.55307  1.0000
  H   H182      1.0  0.02414  0.22902  0.79501  1.0000
  C   C108      1.0  0.03681  0.35892  0.82260  1.0000
  H   H183      1.0  0.07771  0.31852  0.54513  1.0000
  H   H184      1.0  0.03175  0.44008  0.63281  1.0000
  H   H185      1.0  0.02205  0.37483  0.88058  1.0000
  H   H186      1.0  0.06338  0.48249  0.59412  1.0000
  C   C109      1.0  0.01941  0.28531  0.79971  1.0000
  H   H187      1.0  0.09458  0.08092  0.91745  1.0000
  C   C110      1.0  0.04412  0.35944  0.52186  1.0000
  C   C111      1.0  0.31506  0.34698  0.95792  1.0000
  H   H188      1.0  0.08527  0.46087  0.70570  1.0000
  H   H189      1.0  0.18540  0.06371  0.83429  1.0000
  H   H190      1.0  0.13269  0.09796  0.94132  1.0000
  H   H191      1.0  0.13773  0.07653  0.78961  1.0000
  H   H192      1.0  0.21728  0.01076  0.74770  1.0000
  H   H193      1.0  0.28165  0.39190  0.95552  1.0000
  H   H194      1.0  0.16864  0.11191  0.78967  1.0000
  H   H195      1.0  0.02900  0.16836  0.97257  1.0000
  H   H196      1.0  0.14355  0.48223  0.65841  1.0000
  H   H197      1.0  0.28533  0.10194  0.76319  1.0000
  H   H198      1.0  0.03435  0.38488  0.53257  1.0000
  C   C112      1.0  0.30567  0.08723  0.77909  1.0000
  C   C113      1.0  0.09906  0.15070  0.98224  1.0000
  C   C114      1.0  0.19071  0.06079  0.80318  1.0000
  H   H199      1.0  0.08744  0.47658  0.96818  1.0000
  C   C115      1.0  0.18139  0.43728  0.69878  1.0000
  H   H200      1.0  0.03074  0.48907  0.72489  1.0000
  H   H201      1.0  0.31556  0.46126  0.52320  1.0000
  C   C116      1.0  0.15807  0.46544  0.63767  1.0000
  H   H202      1.0  0.16843  0.38569  0.52115  1.0000
  H   H203      1.0  0.32546  0.09374  0.49354  1.0000
  H   H204      1.0  0.01485  0.42885  0.69985  1.0000
  H   H205      1.0  0.01304  0.38325  0.68773  1.0000
  H   H206      1.0  0.20426  0.45502  0.69889  1.0000
  H   H207      1.0  0.22177  0.02781  0.52855  1.0000
  H   H208      1.0  0.04221  0.42978  0.96654  1.0000
  H   H209      1.0  0.31938  0.09499  0.56493  1.0000
  H   H210      1.0  0.08566  0.38272  0.48867  1.0000
  S   S27       1.0  0.09005  0.58943  0.14856  1.0000
  C   C117      1.0  0.10753  0.87469  0.12987  1.0000
  C   C118      1.0  0.05003  0.77921  0.07945  1.0000
  H   H211      1.0  0.07202  0.79125  0.39825  1.0000
  C   C119      1.0  0.11737  0.53929  0.43445  1.0000
  C   C120      1.0  0.04726  0.97481  0.13684  1.0000
  H   H212      1.0  0.22531  0.55691  0.23455  1.0000
  H   H213      1.0  0.01914  0.62615  0.43121  1.0000
  C   C121      1.0  0.26505  0.89990  0.14173  1.0000
  H   H214      1.0  0.11218  0.80133  0.34469  1.0000
  S   S28       1.0  0.17634  0.58593  0.30466  1.0000
  C   C122      1.0  0.08409  0.56593  0.04129  1.0000
  H   H215      1.0  0.09989  0.84223  0.36648  1.0000
  H   H216      1.0  0.13406  0.87641  0.14199  1.0000
  N   N9        1.0  0.27298  0.58449  0.21976  1.0000
  H   H217      1.0  0.20555  0.61656  0.22889  1.0000
  H   H218      1.0  0.13320  0.98503  0.15080  1.0000
  C   C123      1.0  0.10226  0.81952  0.44248  1.0000
  H   H219      1.0  0.32261  0.52376  0.40379  1.0000
  C   C124      1.0  0.14843  0.95508  0.43882  1.0000
  C   C125      1.0  0.18164  0.93978  0.43443  1.0000
  C   C126      1.0  0.26128  0.62195  0.21495  1.0000
  H   H220      1.0  0.11082  0.56864  0.05292  1.0000
  H   H221      1.0  0.05564  0.98003  0.16672  1.0000
  H   H222      1.0  0.29600  0.93080  0.03407  1.0000
  H   H223      1.0  0.13480  0.54083  0.41017  1.0000
  H   H224      1.0  0.06563  0.57075  0.06513  1.0000
  C   C127      1.0  0.11128  0.58846  0.19375  1.0000
  C   C128      1.0  0.13110  0.55891  0.20346  1.0000
  C   C129      1.0  0.14923  0.55722  0.23849  1.0000
  C   C130      1.0  0.14947  0.58593  0.26325  1.0000
  C   C131      1.0  0.13004  0.61577  0.25343  1.0000
  C   C132      1.0  0.11041  0.61680  0.21914  1.0000
  H   H225      1.0  0.08652  0.52332  0.10247  1.0000
  H   H226      1.0  0.03299  0.82847  0.43260  1.0000
  H   H227      1.0  0.13028  0.63820  0.27230  1.0000
  H   H228      1.0  0.09556  0.63988  0.21177  1.0000
  H   H229      1.0  0.30856  0.80056  0.04441  1.0000
  C   C133      1.0  0.01679  0.84418  0.07091  1.0000
  C   C134      1.0  0.30301  0.57850  0.19264  1.0000
  H   H230      1.0  0.10280  0.59870  0.33107  1.0000
  C   C135      1.0  0.03137  0.71444  0.99198  1.0000
  H   H231      1.0  0.05295  0.76531  0.45295  1.0000
  H   H232      1.0  0.02128  0.66450  0.36854  1.0000
  C   C136      1.0  0.27960  0.90737  0.10180  1.0000
  C   C137      1.0  0.11446  0.81746  0.37107  1.0000
  C   C138      1.0  0.14081  0.98555  0.41837  1.0000
  C   C139      1.0  0.22818  0.63260  0.23763  1.0000
  C   C140      1.0  0.12987  0.93639  0.08894  1.0000
  C   C141      1.0  0.19935  0.98536  0.38982  1.0000
  H   H233      1.0  0.09041  0.80135  0.04408  1.0000
  Fe  Fe13      1.0  0.19026  0.53220  0.32677  1.0000
  C   C142      1.0  0.12469  0.95780  0.15676  1.0000
  H   H234      1.0  0.03791  0.57206  0.40366  1.0000
  H   H235      1.0  0.18746  0.98251  0.18876  1.0000
  C   C143      1.0  0.07114  0.71514  0.99420  1.0000
  H   H236      1.0  0.33365  0.81515  0.08486  1.0000
  H   H237      1.0  0.18786  0.91618  0.45004  1.0000
  H   H238      1.0  0.25458  0.92434  0.15447  1.0000
  H   H239      1.0  0.17509  0.93016  0.14900  1.0000
  C   C144      1.0  0.27778  0.00095  0.47005  1.0000
  H   H240      1.0  0.16471  0.98172  0.09734  1.0000
  S   S29       1.0  0.04431  0.66393  0.08606  1.0000
  H   H241      1.0  0.07259  0.56598  0.31509  1.0000
  H   H242      1.0  0.27952  0.85132  0.08998  1.0000
  H   H243      1.0  0.10825  0.59480  0.43639  1.0000
  C   C145      1.0  0.30541  0.54649  0.27070  1.0000
  H   H244      1.0  0.15966  0.96562  0.22631  1.0000
  H   H245      1.0  0.10672  0.96030  0.18155  1.0000
  H   H246      1.0  0.22541  0.57406  0.18751  1.0000
  H   H247      1.0  0.02430  0.52795  0.07552  1.0000
  C   C146      1.0  0.20686  0.95464  0.40993  1.0000
  C   C147      1.0  0.27591  0.86297  0.01708  1.0000
  H   H248      1.0  0.16325  0.94368  0.01956  1.0000
  C   C148      1.0  0.07755  0.52951  0.02299  1.0000
  C   C149      1.0  0.02348  0.50764  0.13297  1.0000
  H   H249      1.0  0.23976  0.68834  0.23953  1.0000
  H   H250      1.0  0.11431  0.77274  0.40805  1.0000
  C   C150      1.0  0.02473  0.81445  0.45881  1.0000
  S   S30       1.0  0.29955  0.97892  0.27941  1.0000
  N   N10       1.0  0.30584  0.87536  0.04181  1.0000
  H   H251      1.0  0.11030  0.86712  0.09924  1.0000
  H   H252      1.0  0.11036  0.75111  0.46735  1.0000
  H   H253      1.0  0.29959  0.92817  0.10497  1.0000
  C   C151      1.0  0.29656  0.87419  0.08401  1.0000
  C   C152      1.0  0.05261  0.78803  0.47288  1.0000
  H   H254      1.0  0.08006  0.73467  0.01561  1.0000
  H   H255      1.0  0.09178  0.52902  0.99521  1.0000
  H   H256      1.0  0.26827  0.83605  0.02522  1.0000
  H   H257      1.0  0.23213  0.94242  0.40677  1.0000
  S   S31       1.0  0.31951  0.94913  0.36547  1.0000
  H   H258      1.0  0.06137  0.84276  0.13992  1.0000
  C   C153      1.0  0.33501  0.60277  0.19816  1.0000
  H   H259      1.0  0.16393  0.53406  0.24580  1.0000
  H   H260      1.0  0.24660  0.91248  0.01190  1.0000
  C   C154      1.0  0.24247  0.56110  0.20924  1.0000
  H   H261      1.0  0.08893  0.84502  0.43749  1.0000
  H   H262      1.0  0.28206  0.64033  0.22429  1.0000
  C   C155      1.0  0.24189  0.88460  0.01840  1.0000
  C   C156      1.0  0.33302  0.81372  0.05306  1.0000
  C   C157      1.0  0.06544  0.80591  0.05756  1.0000
  C   C158      1.0  0.07891  0.96938  0.10963  1.0000
  H   H263      1.0  0.13790  0.52063  0.06165  1.0000
  H   H264      1.0  0.01699  0.71928  0.40430  1.0000
  H   H265      1.0  0.25824  0.91809  0.08402  1.0000
  H   H266      1.0  0.19460  0.67731  0.24689  1.0000
  N   N11       1.0  0.08889  0.80238  0.47849  1.0000
  H   H267      1.0  0.05263  0.59309  0.99853  1.0000
  C   C159      1.0  0.17675  0.95838  0.20184  1.0000
  H   H268      1.0  0.06310  0.75435  0.08286  1.0000
  S   S32       1.0  0.00900  0.96058  0.02012  1.0000
  H   H269      1.0  0.30166  0.93751  0.44500  1.0000
  H   H270      1.0  0.06280  0.62284  0.37609  1.0000
  H   H271      1.0  0.08818  0.84990  0.18190  1.0000
  H   H272      1.0  0.23240  0.62951  0.26894  1.0000
  C   C160      1.0  0.16618  0.00067  0.39428  1.0000
  H   H273      1.0  0.04942  0.52848  0.01499  1.0000
  C   C161      1.0  0.33614  0.85076  0.03500  1.0000
  Fe  Fe14      1.0  0.00611  0.69388  0.12235  1.0000
  H   H274      1.0  0.19887  0.94267  0.21315  1.0000
  H   H275      1.0  0.32054  0.87014  0.10167  1.0000
  H   H276      1.0  0.08158  0.62073  0.02572  1.0000
  H   H277      1.0  0.19710  0.94150  0.05572  1.0000
  C   C162      1.0  0.04886  0.83842  0.05300  1.0000
  Fe  Fe15      1.0  0.04373  0.62426  0.13402  1.0000
  C   C163      1.0  0.08859  0.84511  0.15048  1.0000
  Fe  Fe16      1.0  0.28593  0.99170  0.34103  1.0000
  H   H278      1.0  0.13186  0.98792  0.06092  1.0000
  H   H279      1.0  0.21272  0.67492  0.19935  1.0000
  C   C164      1.0  0.21840  0.67068  0.23027  1.0000
  C   C165      1.0  0.25071  0.52484  0.19139  1.0000
  C   C166      1.0  0.08131  0.58135  0.34036  1.0000
  C   C167      1.0  0.05137  0.60353  0.35587  1.0000
  S   S33       1.0  0.07032  0.87135  0.02642  1.0000
  C   C168      1.0  0.08054  0.56845  0.48153  1.0000
  H   H280      1.0  0.24363  0.88048  0.14006  1.0000
  S   S34       1.0  0.08929  0.96299  0.99174  1.0000
  H   H281      1.0  0.13028  0.82640  0.44590  1.0000
  C   C169      1.0  0.31753  0.91166  0.03112  1.0000
  C   C170      1.0  0.15003  0.96868  0.07396  1.0000
  H   H282      1.0  0.29395  0.58180  0.16243  1.0000
  C   C171      1.0  0.02418  0.58104  0.37734  1.0000
  C   C172      1.0  0.08682  0.90951  0.13274  1.0000
  H   H283      1.0  0.33801  0.92049  0.05166  1.0000
  H   H284      1.0  0.22955  0.88200  0.04698  1.0000
  H   H285      1.0  0.13269  0.53727  0.18367  1.0000
  C   C173      1.0  0.09953  0.79752  0.40523  1.0000
  C   C174      1.0  0.10237  0.56987  0.44941  1.0000
  H   H286      1.0  0.26919  0.50955  0.20897  1.0000
  H   H287      1.0  0.03831  0.52865  0.14771  1.0000
  H   H288      1.0  0.14754  0.91311  0.18674  1.0000
  H   H289      1.0  0.26460  0.99010  0.44410  1.0000
  H   H290      1.0  0.03858  0.68682  0.43332  1.0000
  S   S35       1.0  0.02156  0.90768  0.46409  1.0000
  H   H291      1.0  0.01943  0.83385  0.48160  1.0000
  H   H292      1.0  0.07568  0.91161  0.16214  1.0000
  H   H293      1.0  0.03031  0.95135  0.13686  1.0000
  S   S36       1.0  0.00898  0.65630  0.17260  1.0000
  H   H294      1.0  0.09114  0.99546  0.10564  1.0000
  N   N12       1.0  0.10579  0.94281  0.12241  1.0000
  C   C175      1.0  0.15652  0.93711  0.17206  1.0000
  H   H295      1.0  0.14955  0.91608  0.09560  1.0000
  S   S37       1.0  0.02483  0.99298  0.46767  1.0000
  H   H296      1.0  0.06807  0.96211  0.08100  1.0000
  H   H297      1.0  0.33720  0.92367  0.21620  1.0000
  C   C176      1.0  0.07893  0.59486  0.01167  1.0000
  H   H298      1.0  0.09169  0.56345  0.36260  1.0000
  C   C177      1.0  0.01828  0.78512  0.09791  1.0000
  H   H299      1.0  0.06406  0.90559  0.11315  1.0000
  H   H300      1.0  0.28954  0.54301  0.33074  1.0000
  H   H301      1.0  0.28590  0.88975  0.16097  1.0000
  Fe  Fe17      1.0  0.06052  0.94812  0.48329  1.0000
  H   H302      1.0  0.25626  0.62766  0.18403  1.0000
  H   H303      1.0  0.11472  0.92542  0.06438  1.0000
  H   H304      1.0  0.32915  0.56768  0.32282  1.0000
  H   H305      1.0  0.04002  0.61744  0.33099  1.0000
  H   H306      1.0  0.32875  0.62964  0.18834  1.0000
  H   H307      1.0  0.10216  0.81997  0.14499  1.0000
  C   C178      1.0  0.28340  0.57933  0.26127  1.0000
  H   H308      1.0  0.25984  0.57831  0.27990  1.0000
  Fe  Fe18      1.0  0.04881  0.92151  0.00012  1.0000
  C   C179      1.0  0.01335  0.69424  0.41978  1.0000
  H   H309      1.0  0.02697  0.76981  0.00069  1.0000
  H   H310      1.0  0.14245  0.82354  0.37588  1.0000
  H   H311      1.0  0.31256  0.55116  0.19448  1.0000
  H   H312      1.0  0.08093  0.68906  0.00312  1.0000
  H   H313      1.0  0.01900  0.55708  0.36004  1.0000
  H   H314      1.0  0.26215  0.52813  0.16237  1.0000
  S   S38       1.0  0.11800  0.93548  0.47083  1.0000
  C   C180      1.0  0.33284  0.91620  0.99033  1.0000
  S   S39       1.0  0.20946  0.51857  0.38633  1.0000
  C   C181      1.0  0.17634  0.95816  0.04314  1.0000
  C   C182      1.0  0.31604  0.98819  0.46936  1.0000
  H   H315      1.0  0.29115  0.52246  0.26326  1.0000
  H   H316      1.0  0.20925  0.84325  0.99427  1.0000
  Fe  Fe19      1.0  0.33650  0.93947  0.30471  1.0000
  C   C183      1.0  0.21550  0.87112  0.98893  1.0000
  C   C184      1.0  0.31785  0.94831  0.46861  1.0000
  H   H317      1.0  0.32974  0.99806  0.44362  1.0000
  H   H318      1.0  0.33064  0.54664  0.25525  1.0000
  H   H319      1.0  0.01583  0.00232  0.09408  1.0000
  H   H320      1.0  0.11548  0.99771  0.42140  1.0000
  C   C185      1.0  0.31383  0.54458  0.31353  1.0000
  H   H321      1.0  0.19780  0.51758  0.16957  1.0000
  H   H322      1.0  0.18859  0.98187  0.03084  1.0000
  H   H323      1.0  0.32955  0.52077  0.31935  1.0000
  H   H324      1.0  0.29835  0.60226  0.27199  1.0000
  H   H325      1.0  0.02141  0.70689  0.02057  1.0000
  Fe  Fe20      1.0  0.04802  0.00251  0.00611  1.0000
  C   C186      1.0  0.02490  0.00578  0.12411  1.0000
  H   H326      1.0  0.19096  0.88646  0.99089  1.0000
  C   C187      1.0  0.10986  0.50691  0.45083  1.0000
  H   H327      1.0  0.05944  0.50747  0.33203  1.0000
  H   H328      1.0  0.14059  0.78060  0.48746  1.0000
  H   H329      1.0  0.09886  0.59286  0.98872  1.0000
  S   S40       1.0  0.01430  0.64745  0.58773  1.0000
  H   H330      1.0  0.00761  0.82265  0.98311  1.0000
  C   C188      1.0  0.08796  0.82944  0.50987  1.0000
  Fe  Fe21      1.0  0.31760  0.93484  0.86731  1.0000
  S   S41       1.0  0.27038  0.93049  0.90682  1.0000
  H   H331      1.0  0.07149  0.85205  0.50118  1.0000
  H   H332      1.0  0.14534  0.88156  0.56301  1.0000
  S   S42       1.0  0.10965  0.96916  0.88216  1.0000
  H   H333      1.0  0.33106  0.77029  0.74209  1.0000
  S   S43       1.0  0.04996  0.63333  0.67311  1.0000
  C   C189      1.0  0.05180  0.52074  0.77165  1.0000
  Fe  Fe22      1.0  0.05690  0.61379  0.56342  1.0000
  S   S44       1.0  0.09938  0.64053  0.59645  1.0000
  H   H334      1.0  0.30849  0.93739  0.49622  1.0000
  Fe  Fe23      1.0  0.08977  0.60035  0.64225  1.0000
  S   S45       1.0  0.13473  0.56712  0.66445  1.0000
  Fe  Fe24      1.0  0.05625  0.67157  0.62386  1.0000
  S   S46       1.0  0.06391  0.73028  0.63207  1.0000
  S   S47       1.0  0.05034  0.57130  0.60671  1.0000
  H   H335      1.0  0.33699  0.81685  0.73968  1.0000
  H   H336      1.0  0.13527  0.85997  0.49788  1.0000
  C   C190      1.0  0.11279  0.77244  0.48888  1.0000
  H   H337      1.0  0.26581  0.98780  0.49517  1.0000
  S   S48       1.0  0.03163  0.92275  0.93840  1.0000
  S   S49       1.0  0.04335  0.94673  0.54566  1.0000
  H   H338      1.0  0.02642  0.64751  0.80118  1.0000
  H   H339      1.0  0.17660  0.52827  0.60189  1.0000
  H   H340      1.0  0.13288  0.56747  0.56859  1.0000
  C   C191      1.0  0.04212  0.76481  0.60784  1.0000
  C   C192      1.0  0.05279  0.79939  0.61463  1.0000
  C   C193      1.0  0.03574  0.82773  0.59679  1.0000
  H   H341      1.0  0.09047  0.00625  0.66183  1.0000
  C   C194      1.0  0.17031  0.51994  0.76111  1.0000
  H   H342      1.0  0.07428  0.80430  0.63408  1.0000
  H   H343      1.0  0.04397  0.85418  0.60268  1.0000
  H   H344      1.0  0.07733  0.52215  0.78675  1.0000
  H   H345      1.0  0.18051  0.51796  0.70036  1.0000
  H   H346      1.0  0.08244  0.72154  0.96577  1.0000
  C   C195      1.0  0.23591  0.99565  0.76563  1.0000
  Fe  Fe25      1.0  0.07037  0.96656  0.93141  1.0000
  H   H347      1.0  0.05547  0.53466  0.52229  1.0000
  C   C196      1.0  0.01865  0.71452  0.72746  1.0000
  H   H348      1.0  0.06833  0.00251  0.61638  1.0000
  C   C197      1.0  0.15189  0.53661  0.79044  1.0000
  C   C198      1.0  0.13016  0.56502  0.78127  1.0000
  C   C199      1.0  0.12476  0.57496  0.74280  1.0000
  C   C200      1.0  0.14237  0.55753  0.71338  1.0000
  H   H349      1.0  0.20857  0.99808  0.49096  1.0000
  H   H350      1.0  0.15886  0.73339  0.53392  1.0000
  H   H351      1.0  0.10709  0.59607  0.73588  1.0000
  H   H352      1.0  0.01205  0.52017  0.88418  1.0000
  H   H353      1.0  0.02417  0.69381  0.97110  1.0000
  C   C201      1.0  0.22600  0.94147  0.89863  1.0000
  C   C202      1.0  0.21187  0.94491  0.86180  1.0000
  C   C203      1.0  0.17627  0.95354  0.85701  1.0000
  C   C204      1.0  0.15436  0.95816  0.88899  1.0000
  C   C205      1.0  0.16866  0.95456  0.92571  1.0000
  C   C206      1.0  0.20418  0.94638  0.93047  1.0000
  H   H354      1.0  0.22827  0.94035  0.83713  1.0000
  C   C207      1.0  0.01416  0.75882  0.58283  1.0000
  H   H355      1.0  0.15244  0.95844  0.95052  1.0000
  H   H356      1.0  0.21487  0.94420  0.95906  1.0000
  H   H357      1.0  0.28406  0.86081  0.98655  1.0000
  H   H358      1.0  0.31320  0.96887  0.98015  1.0000
  H   H359      1.0  0.26715  0.94853  0.75822  1.0000
  C   C208      1.0  0.02728  0.55793  0.82170  1.0000
  H   H360      1.0  0.03812  0.98614  0.69604  1.0000
  C   C209      1.0  0.02409  0.62429  0.82004  1.0000
  H   H361      1.0  0.11098  0.77445  0.55239  1.0000
  S   S50       1.0  0.15373  0.52169  0.83844  1.0000
  H   H362      1.0  0.10967  0.85593  0.58128  1.0000
  H   H363      1.0  0.01355  0.94864  0.64430  1.0000
  H   H364      1.0  0.05111  0.54288  0.75107  1.0000
  C   C210      1.0  0.15322  0.55239  0.55307  1.0000
  H   H365      1.0  0.04384  0.72500  0.71686  1.0000
  H   H366      1.0  0.01137  0.72903  0.75386  1.0000
  C   C211      1.0  0.07280  0.53602  0.49791  1.0000
  H   H367      1.0  0.11651  0.57855  0.80397  1.0000
  C   C212      1.0  0.11964  0.86998  0.55573  1.0000
  C   C213      1.0  0.13127  0.72478  0.53552  1.0000
  H   H368      1.0  0.16548  0.95605  0.82845  1.0000
  H   H369      1.0  0.02244  0.68650  0.73452  1.0000
  H   H370      1.0  0.28770  0.00264  0.78966  1.0000
  H   H371      1.0  0.10148  0.89153  0.54821  1.0000
  H   H372      1.0  0.00963  0.59065  0.77334  1.0000
  H   H373      1.0  0.11504  0.51311  0.60637  1.0000
  S   S51       1.0  0.06193  0.60742  0.49911  1.0000
  C   C214      1.0  0.00773  0.82177  0.57189  1.0000
  C   C215      1.0  0.24944  0.96544  0.74112  1.0000
  C   C216      1.0  0.16598  0.53080  0.72282  1.0000
  H   H374      1.0  0.32169  0.79354  0.69793  1.0000
  H   H375      1.0  0.05134  0.55736  0.83981  1.0000
  H   H376      1.0  0.07518  0.81868  0.53570  1.0000
  C   C217      1.0  0.02947  0.59111  0.79635  1.0000
  H   H377      1.0  0.05555  0.59299  0.78285  1.0000
  H   H378      1.0  0.04243  0.77753  0.50033  1.0000
  C   C218      1.0  0.01653  0.75048  0.97983  1.0000
  C   C219      1.0  0.33855  0.95481  0.98112  1.0000
  S   S52       1.0  0.32868  0.91871  0.80625  1.0000
  H   H379      1.0  0.22721  0.94934  0.73095  1.0000
  H   H380      1.0  0.04413  0.62613  0.84303  1.0000
  H   H381      1.0  0.26380  0.97541  0.71575  1.0000
  H   H382      1.0  0.31528  0.90535  0.96813  1.0000
  C   C220      1.0  0.12371  0.84495  0.52188  1.0000
  H   H383      1.0  0.02859  0.75788  0.95201  1.0000
  H   H384      1.0  0.08885  0.50769  0.70389  1.0000
  H   H385      1.0  0.22180  0.98420  0.79013  1.0000
  N   N13       1.0  0.02282  0.52360  0.80075  1.0000
  H   H386      1.0  0.14348  0.54541  0.52407  1.0000
  H   H387      1.0  0.22591  0.87394  0.95936  1.0000
  H   H388      1.0  0.14240  0.82436  0.53065  1.0000
  Fe  Fe26      1.0  0.01108  0.60689  0.63435  1.0000
  H   H389      1.0  0.07728  0.96385  0.64459  1.0000
  C   C221      1.0  0.03493  0.99637  0.66648  1.0000
  H   H390      1.0  0.33003  0.99641  0.49564  1.0000
  C   C222      1.0  0.33932  0.79208  0.72321  1.0000
  H   H391      1.0  0.12657  0.70383  0.51405  1.0000
  H   H392      1.0  0.17646  0.56931  0.54962  1.0000
  C   C223      1.0  0.06984  0.99187  0.64598  1.0000
  H   H393      1.0  0.12662  0.71379  0.56456  1.0000
  C   C224      1.0  0.10655  0.75549  0.52881  1.0000
  C   C225      1.0  0.16318  0.51949  0.57533  1.0000
  H   H394      1.0  0.07963  0.74532  0.53137  1.0000
  Fe  Fe27      1.0  0.57171  0.11615  0.06040  1.0000
  S   S53       1.0  0.60023  0.16543  0.07494  1.0000
  C   C226      1.0  0.61277  0.25406  0.00803  1.0000
  Fe  Fe28      1.0  0.53803  0.11045  0.14061  1.0000
  S   S54       1.0  0.56376  0.15986  0.16107  1.0000
  S   S55       1.0  0.51446  0.06982  0.18024  1.0000
  Fe  Fe29      1.0  0.54999  0.18235  0.10281  1.0000
  S   S56       1.0  0.51983  0.23236  0.08852  1.0000
  Fe  Fe30      1.0  0.61131  0.13871  0.13138  1.0000
  C   C227      1.0  0.50044  0.02499  0.99931  1.0000
  S   S57       1.0  0.52049  0.13384  0.08479  1.0000
  S   S58       1.0  0.58651  0.08838  0.11425  1.0000
  C   C228      1.0  0.46265  0.17672  0.22137  1.0000
  S   S59       1.0  0.57732  0.47954  0.02265  1.0000
  C   C229      1.0  0.58044  0.50308  0.31280  1.0000
  S   S60       1.0  0.49745  0.47673  0.05231  1.0000
  S   S61       1.0  0.66082  0.05914  0.32091  1.0000
  Fe  Fe31      1.0  0.53863  0.43723  0.03645  1.0000
  S   S62       1.0  0.56241  0.39308  0.07246  1.0000
  C   C230      1.0  0.50701  0.01133  0.08318  1.0000
  H   H395      1.0  0.60655  0.08036  0.26943  1.0000
  S   S63       1.0  0.35900  0.05616  0.24098  1.0000
  C   C231      1.0  0.45564  0.04784  0.09551  1.0000
  S   S64       1.0  0.66448  0.13238  0.15837  1.0000
  S   S65       1.0  0.61449  0.42412  0.42030  1.0000
  H   H396      1.0  0.45163  0.19290  0.30383  1.0000
  S   S66       1.0  0.51465  0.42464  0.45114  1.0000
  Fe  Fe32      1.0  0.56900  0.44778  0.45400  1.0000
  H   H397      1.0  0.60488  0.03172  0.36895  1.0000
  C   C232      1.0  0.34445  0.50591  0.40238  1.0000
  H   H398      1.0  0.53510  0.50620  0.35053  1.0000
  C   C233      1.0  0.42497  0.10386  0.07227  1.0000
  H   H399      1.0  0.65389  0.06128  0.09484  1.0000
  C   C234      1.0  0.53831  0.10586  0.45292  1.0000
  C   C235      1.0  0.65639  0.44211  0.41119  1.0000
  C   C236      1.0  0.66099  0.47770  0.40406  1.0000
  Fe  Fe33      1.0  0.49468  0.47970  0.45770  1.0000
  H   H400      1.0  0.57163  0.39756  0.34263  1.0000
  H   H401      1.0  0.60749  0.10972  0.20634  1.0000
  C   C237      1.0  0.47077  0.06613  0.19540  1.0000
  C   C238      1.0  0.44488  0.08955  0.18370  1.0000
  C   C239      1.0  0.41058  0.08591  0.19743  1.0000
  C   C240      1.0  0.40198  0.05892  0.22298  1.0000
  C   C241      1.0  0.42791  0.03530  0.23421  1.0000
  C   C242      1.0  0.46209  0.03889  0.22040  1.0000
  H   H402      1.0  0.45130  0.11053  0.16432  1.0000
  H   H403      1.0  0.39065  0.10424  0.18851  1.0000
  H   H404      1.0  0.63994  0.43511  0.21852  1.0000
  H   H405      1.0  0.65135  0.48159  0.32073  1.0000
  C   C243      1.0  0.53350  0.27639  0.08221  1.0000
  C   C244      1.0  0.56456  0.28916  0.09795  1.0000
  C   C245      1.0  0.57293  0.32491  0.09464  1.0000
  C   C246      1.0  0.55078  0.34819  0.07495  1.0000
  C   C247      1.0  0.52018  0.33526  0.05835  1.0000
  C   C248      1.0  0.51147  0.29967  0.06233  1.0000
  H   H406      1.0  0.58165  0.27169  0.11353  1.0000
  H   H407      1.0  0.59665  0.33463  0.10762  1.0000
  H   H408      1.0  0.50281  0.35283  0.04327  1.0000
  H   H409      1.0  0.48729  0.29013  0.05023  1.0000
  C   C249      1.0  0.50647  0.12348  0.43500  1.0000
  H   H410      1.0  0.47440  0.06863  0.10415  1.0000
  H   H411      1.0  0.64467  0.48691  0.27073  1.0000
  H   H412      1.0  0.44845  0.10375  0.26914  1.0000
  N   N14       1.0  0.48075  0.14736  0.28579  1.0000
  C   C250      1.0  0.50849  0.12328  0.30153  1.0000
  H   H413      1.0  0.59427  0.01089  0.44704  1.0000
  H   H414      1.0  0.62095  0.39487  0.23588  1.0000
  C   C251      1.0  0.47826  0.18162  0.30729  1.0000
  C   C252      1.0  0.48709  0.18101  0.35083  1.0000
  C   C253      1.0  0.54659  0.13645  0.29782  1.0000
  H   H415      1.0  0.60030  0.24320  0.03416  1.0000
  C   C254      1.0  0.43124  0.11893  0.32606  1.0000
  H   H416      1.0  0.58112  0.30005  0.00990  1.0000
  C   C255      1.0  0.47725  0.21548  0.37011  1.0000
  C   C256      1.0  0.36857  0.44979  0.38530  1.0000
  H   H417      1.0  0.36535  0.42404  0.37304  1.0000
  H   H418      1.0  0.50740  0.09756  0.28650  1.0000
  H   H419      1.0  0.50362  0.11702  0.33206  1.0000
  C   C257      1.0  0.57967  0.03560  0.44197  1.0000
  H   H420      1.0  0.49413  0.13006  0.22841  1.0000
  H   H421      1.0  0.57712  0.02196  0.05447  1.0000
  H   H422      1.0  0.51490  0.16922  0.24256  1.0000
  H   H423      1.0  0.49605  0.20142  0.29454  1.0000
  H   H424      1.0  0.44345  0.10755  0.04821  1.0000
  H   H425      1.0  0.51547  0.17709  0.35528  1.0000
  H   H426      1.0  0.47346  0.15989  0.36619  1.0000
  H   H427      1.0  0.55662  0.13014  0.26869  1.0000
  H   H428      1.0  0.54842  0.16513  0.30162  1.0000
  C   C258      1.0  0.49039  0.01568  0.32289  1.0000
  H   H429      1.0  0.50019  0.20606  0.18714  1.0000
  H   H430      1.0  0.45007  0.10434  0.34409  1.0000
  H   H431      1.0  0.42308  0.14312  0.34116  1.0000
  C   C259      1.0  0.40510  0.38231  0.03615  1.0000
  H   H432      1.0  0.63552  0.41867  0.05932  1.0000
  H   H433      1.0  0.56852  0.40529  0.19527  1.0000
  C   C260      1.0  0.60035  0.35046  0.33486  1.0000
  H   H434      1.0  0.39089  0.11195  0.44625  1.0000
  H   H435      1.0  0.59198  0.46957  0.24513  1.0000
  C   C261      1.0  0.64427  0.08452  0.99915  1.0000
  H   H436      1.0  0.56304  0.12676  0.35690  1.0000
  H   H437      1.0  0.42165  0.01423  0.25344  1.0000
  H   H438      1.0  0.45715  0.20356  0.16678  1.0000
  C   C262      1.0  0.58900  0.46453  0.32302  1.0000
  C   C263      1.0  0.66345  0.10923  0.20199  1.0000
  H   H439      1.0  0.42912  0.39334  0.02319  1.0000
  C   C264      1.0  0.42898  0.02250  0.47654  1.0000
  S   S67       1.0  0.54892  0.50294  0.45415  1.0000
  C   C265      1.0  0.44632  0.12826  0.28620  1.0000
  C   C266      1.0  0.65281  0.42427  0.03458  1.0000
  Fe  Fe34      1.0  0.48089  0.47402  0.98998  1.0000
  H   H440      1.0  0.54803  0.05666  0.39431  1.0000
  C   C267      1.0  0.40163  0.08697  0.45468  1.0000
  C   C268      1.0  0.63118  0.08540  0.25566  1.0000
  C   C269      1.0  0.39880  0.09617  0.32218  1.0000
  H   H441      1.0  0.66233  0.35768  0.00840  1.0000
  C   C270      1.0  0.63169  0.10194  0.21979  1.0000
  C   C271      1.0  0.40641  0.49340  0.41467  1.0000
  H   H442      1.0  0.42554  0.14398  0.27218  1.0000
  H   H443      1.0  0.45449  0.20030  0.23752  1.0000
  C   C272      1.0  0.62088  0.41013  0.31315  1.0000
  H   H444      1.0  0.40669  0.35339  0.03468  1.0000
  C   C273      1.0  0.63584  0.36779  0.00145  1.0000
  N   N15       1.0  0.61352  0.44564  0.29614  1.0000
  H   H445      1.0  0.40404  0.39070  0.06664  1.0000
  H   H446      1.0  0.63895  0.49526  0.40600  1.0000
  C   C274      1.0  0.65763  0.01269  0.15362  1.0000
  C   C275      1.0  0.47986  0.04424  0.03123  1.0000
  H   H447      1.0  0.61416  0.02798  0.21200  1.0000
  H   H448      1.0  0.40864  0.05135  0.05787  1.0000
  H   H449      1.0  0.63452  0.41324  0.34114  1.0000
  H   H450      1.0  0.44869  0.22003  0.36810  1.0000
  H   H451      1.0  0.43451  0.11882  0.09748  1.0000
  H   H452      1.0  0.54789  0.12321  0.47618  1.0000
  H   H453      1.0  0.37897  0.05915  0.40684  1.0000
  H   H454      1.0  0.35528  0.44119  0.46489  1.0000
  H   H455      1.0  0.43248  0.41516  0.45940  1.0000
  C   C276      1.0  0.63811  0.40802  0.99787  1.0000
  C   C277      1.0  0.40873  0.02493  0.44308  1.0000
  H   H456      1.0  0.52847  0.02409  0.00691  1.0000
  H   H457      1.0  0.66127  0.03746  0.17000  1.0000
  H   H458      1.0  0.57364  0.38234  0.29356  1.0000
  H   H459      1.0  0.40182  0.06369  0.10641  1.0000
  H   H460      1.0  0.62994  0.01365  0.14390  1.0000
  H   H461      1.0  0.64460  0.09461  0.02815  1.0000
  C   C278      1.0  0.48977  0.15485  0.24437  1.0000
  H   H462      1.0  0.59975  0.46408  0.35272  1.0000
  H   H463      1.0  0.51365  0.15003  0.42513  1.0000
  H   H464      1.0  0.43915  0.16091  0.21486  1.0000
  C   C279      1.0  0.42084  0.06521  0.08241  1.0000
  H   H465      1.0  0.52375  0.03441  0.08965  1.0000
  H   H466      1.0  0.55914  0.10426  0.43099  1.0000
  C   C280      1.0  0.47733  0.18870  0.18286  1.0000
  H   H467      1.0  0.59793  0.12729  0.32245  1.0000
  H   H468      1.0  0.45508  0.05327  0.01789  1.0000
  H   H469      1.0  0.49674  0.10815  0.41013  1.0000
  C   C281      1.0  0.40165  0.46012  0.39904  1.0000
  C   C282      1.0  0.61530  0.42187  0.22629  1.0000
  H   H470      1.0  0.49121  0.23761  0.35651  1.0000
  H   H471      1.0  0.39304  0.39544  0.44120  1.0000
  C   C283      1.0  0.58888  0.38632  0.32028  1.0000
  H   H472      1.0  0.34119  0.39839  0.47579  1.0000
  C   C284      1.0  0.39486  0.05720  0.43234  1.0000
  N   N16       1.0  0.55990  0.04587  0.47773  1.0000
  H   H473      1.0  0.46266  0.02216  0.31681  1.0000
  H   H474      1.0  0.45772  0.35648  0.47158  1.0000
  C   C285      1.0  0.57054  0.11903  0.32734  1.0000
  H   H475      1.0  0.39931  0.11479  0.06360  1.0000
  H   H476      1.0  0.60794  0.40423  0.16746  1.0000
  H   H477      1.0  0.44544  0.36257  0.42213  1.0000
  H   H478      1.0  0.45003  0.03441  0.12291  1.0000
  C   C286      1.0  0.37323  0.39563  0.01417  1.0000
  H   H479      1.0  0.48196  0.02048  0.22913  1.0000
  H   H480      1.0  0.48459  0.21459  0.40097  1.0000
  H   H481      1.0  0.58752  0.44548  0.17791  1.0000
  H   H482      1.0  0.61691  0.33704  0.31329  1.0000
  H   H483      1.0  0.49486  0.06832  0.03842  1.0000
  H   H484      1.0  0.56926  0.09015  0.32476  1.0000
  H   H485      1.0  0.56918  0.43218  0.26047  1.0000
  H   H486      1.0  0.62229  0.02956  0.04581  1.0000
  H   H487      1.0  0.60017  0.05524  0.43525  1.0000
  H   H488      1.0  0.48532  0.12608  0.45650  1.0000
  H   H489      1.0  0.51044  0.05687  0.44944  1.0000
  C   C287      1.0  0.52914  0.06938  0.46943  1.0000
  H   H490      1.0  0.40578  0.07008  0.31052  1.0000
  H   H491      1.0  0.42369  0.44264  0.39655  1.0000
  N   N17       1.0  0.47244  0.02336  0.06706  1.0000
  H   H492      1.0  0.37918  0.10864  0.30307  1.0000
  C   C288      1.0  0.64689  0.46674  0.29361  1.0000
  H   H493      1.0  0.38673  0.09254  0.35074  1.0000
  H   H494      1.0  0.49515  0.01834  0.35417  1.0000
  C   C289      1.0  0.59340  0.41915  0.18964  1.0000
  H   H495      1.0  0.48516  0.16591  0.16515  1.0000
  H   H496      1.0  0.57704  0.33408  0.34036  1.0000
  C   C290      1.0  0.59592  0.44308  0.25747  1.0000
  S   S68       1.0  0.57239  0.08966  0.00240  1.0000
  H   H497      1.0  0.50710  0.03462  0.30744  1.0000
  C   C291      1.0  0.55815  0.03116  0.40443  1.0000
  H   H498      1.0  0.62014  0.36238  0.02760  1.0000
  C   C292      1.0  0.43522  0.35996  0.45176  1.0000
  Fe  Fe35      1.0  0.34435  0.01642  0.28666  1.0000
  H   H499      1.0  0.56428  0.50436  0.28636  1.0000
  H   H500      1.0  0.37377  0.42453  0.01554  1.0000
  H   H501      1.0  0.56336  0.45112  0.32449  1.0000
  H   H502      1.0  0.41835  0.33647  0.45304  1.0000
  C   C293      1.0  0.41451  0.39271  0.46234  1.0000
  H   H503      1.0  0.64065  0.24616  0.00797  1.0000
  C   C294      1.0  0.60928  0.29379  0.00826  1.0000
  C   C295      1.0  0.33973  0.47256  0.38677  1.0000
  C   C296      1.0  0.58065  0.01623  0.37233  1.0000
  H   H504      1.0  0.61195  0.41925  0.99243  1.0000
  H   H505      1.0  0.62197  0.30353  0.03485  1.0000
  H   H506      1.0  0.63922  0.39497  0.29510  1.0000
  H   H507      1.0  0.53566  0.01359  0.40825  1.0000
  H   H508      1.0  0.56626  0.01685  0.34472  1.0000
  C   C297      1.0  0.66228  0.07513  0.27358  1.0000
  H   H509      1.0  0.61513  0.35316  0.36220  1.0000
  H   H510      1.0  0.65460  0.45301  0.03122  1.0000
  H   H511      1.0  0.58612  0.00732  0.98902  1.0000
  H   H512      1.0  0.57247  0.01480  0.26447  1.0000
  C   C298      1.0  0.60213  0.00897  0.04760  1.0000
  H   H513      1.0  0.56975  0.35602  0.99379  1.0000
  H   H514      1.0  0.63431  0.00712  0.25309  1.0000
  H   H515      1.0  0.34055  0.35239  0.03285  1.0000
  C   C299      1.0  0.56031  0.33392  0.93740  1.0000
  C   C300      1.0  0.52814  0.28529  0.68248  1.0000
  H   H516      1.0  0.52099  0.37237  0.92139  1.0000
  Fe  Fe36      1.0  0.51941  0.17529  0.59842  1.0000
  S   S69       1.0  0.52447  0.13186  0.55525  1.0000
  S   S70       1.0  0.54875  0.22661  0.58907  1.0000
  Fe  Fe37      1.0  0.47504  0.12951  0.65175  1.0000
  S   S71       1.0  0.47527  0.08375  0.61166  1.0000
  S   S72       1.0  0.45441  0.12657  0.71226  1.0000
  Fe  Fe38      1.0  0.53233  0.09566  0.60550  1.0000
  S   S73       1.0  0.56887  0.04930  0.61195  1.0000
  Fe  Fe39      1.0  0.46725  0.12372  0.56530  1.0000
  S   S74       1.0  0.42963  0.12263  0.51517  1.0000
  S   S75       1.0  0.53248  0.13941  0.64782  1.0000
  S   S76       1.0  0.46177  0.16901  0.60622  1.0000
  H   H517      1.0  0.57961  0.03586  0.74391  1.0000
  C   C301      1.0  0.58420  0.06557  0.50424  1.0000
  H   H518      1.0  0.35485  0.09954  0.80768  1.0000
  H   H519      1.0  0.63005  0.38807  0.92371  1.0000
  H   H520      1.0  0.43714  0.09176  0.78283  1.0000
  H   H521      1.0  0.54989  0.04812  0.78139  1.0000
  S   S77       1.0  0.49172  0.37921  0.54860  1.0000
  C   C302      1.0  0.53199  0.26779  0.57388  1.0000
  C   C303      1.0  0.55552  0.29466  0.56472  1.0000
  C   C304      1.0  0.54359  0.32848  0.55529  1.0000
  C   C305      1.0  0.50791  0.33610  0.55580  1.0000
  C   C306      1.0  0.48434  0.30923  0.56491  1.0000
  C   C307      1.0  0.49623  0.27517  0.57333  1.0000
  H   H522      1.0  0.58322  0.28935  0.56522  1.0000
  H   H523      1.0  0.36340  0.08676  0.54943  1.0000
  H   H524      1.0  0.45670  0.31482  0.56557  1.0000
  H   H525      1.0  0.47777  0.25483  0.58006  1.0000
  H   H526      1.0  0.34650  0.12407  0.76462  1.0000
  H   H527      1.0  0.49845  0.25444  0.82058  1.0000
  H   H528      1.0  0.39653  0.39394  0.64919  1.0000
  C   C308      1.0  0.61514  0.02508  0.66643  1.0000
  H   H529      1.0  0.53488  0.02240  0.52674  1.0000
  H   H530      1.0  0.34248  0.05063  0.49597  1.0000
  H   H531      1.0  0.45139  0.05017  0.52477  1.0000
  H   H532      1.0  0.44163  0.27538  0.70039  1.0000
  C   C309      1.0  0.37520  0.42940  0.89027  1.0000
  C   C310      1.0  0.40075  0.44088  0.91666  1.0000
  C   C311      1.0  0.39210  0.46543  0.94482  1.0000
  C   C312      1.0  0.35788  0.47867  0.94583  1.0000
  H   H533      1.0  0.39809  0.04171  0.79736  1.0000
  H   H534      1.0  0.38204  0.41021  0.86876  1.0000
  H   H535      1.0  0.42695  0.43045  0.91551  1.0000
  H   H536      1.0  0.53804  0.27827  0.83003  1.0000
  C   C313      1.0  0.48302  0.00950  0.84134  1.0000
  C   C314      1.0  0.66016  0.47790  0.88007  1.0000
  C   C315      1.0  0.65678  0.39812  0.52131  1.0000
  C   C316      1.0  0.61703  0.08704  0.65369  1.0000
  C   C317      1.0  0.60242  0.05430  0.64645  1.0000
  H   H537      1.0  0.36132  0.49492  0.51173  1.0000
  C   C318      1.0  0.49734  0.04370  0.96073  1.0000
  C   C319      1.0  0.65667  0.48904  0.94809  1.0000
  H   H538      1.0  0.60772  0.10970  0.63825  1.0000
  H   H539      1.0  0.55101  0.35210  0.66569  1.0000
  H   H540      1.0  0.49019  0.23410  0.64659  1.0000
  C   C320      1.0  0.64382  0.05840  0.92394  1.0000
  C   C321      1.0  0.38146  0.48642  0.53268  1.0000
  C   C322      1.0  0.38245  0.03433  0.73857  1.0000
  C   C323      1.0  0.38611  0.04637  0.70085  1.0000
  C   C324      1.0  0.40875  0.07409  0.69247  1.0000
  C   C325      1.0  0.42715  0.09064  0.72197  1.0000
  C   C326      1.0  0.42316  0.07890  0.75984  1.0000
  C   C327      1.0  0.40113  0.05055  0.76809  1.0000
  H   H541      1.0  0.41122  0.08325  0.66328  1.0000
  H   H542      1.0  0.57104  0.33430  0.90793  1.0000
  C   C328      1.0  0.59882  0.19530  0.70809  1.0000
  C   C329      1.0  0.43590  0.05229  0.49889  1.0000
  H   H543      1.0  0.52206  0.32761  0.72452  1.0000
  H   H544      1.0  0.63761  0.40134  0.54489  1.0000
  H   H545      1.0  0.64671  0.46555  0.53724  1.0000
  H   H546      1.0  0.66399  0.05430  0.55185  1.0000
  H   H547      1.0  0.66829  0.37157  0.52338  1.0000
  H   H548      1.0  0.38619  0.36515  0.50670  1.0000
  Fe  Fe40      1.0  0.51764  0.42389  0.51565  1.0000
  H   H549      1.0  0.59945  0.24277  0.98257  1.0000
  H   H550      1.0  0.55981  0.30649  0.94751  1.0000
  H   H551      1.0  0.48761  0.23280  0.75064  1.0000
  C   C330      1.0  0.55465  0.04936  0.75009  1.0000
  C   C331      1.0  0.55920  0.08785  0.73987  1.0000
  S   S78       1.0  0.51976  0.43163  0.97566  1.0000
  H   H552      1.0  0.56379  0.09087  0.70867  1.0000
  H   H553      1.0  0.53559  0.10303  0.74790  1.0000
  H   H554      1.0  0.58204  0.09868  0.75548  1.0000
  S   S79       1.0  0.67135  0.00960  0.82342  1.0000
  H   H555      1.0  0.64348  0.04857  0.89485  1.0000
  C   C332      1.0  0.64200  0.02864  0.69386  1.0000
  H   H556      1.0  0.51373  0.07385  0.49610  1.0000
  C   C333      1.0  0.51638  0.27466  0.80919  1.0000
  H   H557      1.0  0.66122  0.46438  0.48959  1.0000
  H   H558      1.0  0.50605  0.07123  0.96330  1.0000
  H   H559      1.0  0.56979  0.07505  0.52993  1.0000
  C   C334      1.0  0.36454  0.41084  0.55678  1.0000
  S   S80       1.0  0.57265  0.44386  0.51817  1.0000
  H   H560      1.0  0.50101  0.05011  0.72974  1.0000
  H   H561      1.0  0.58802  0.06531  0.92669  1.0000
  N   N18       1.0  0.51322  0.25235  0.69985  1.0000
  C   C335      1.0  0.50172  0.25665  0.74092  1.0000
  C   C336      1.0  0.52434  0.03292  0.72667  1.0000
  H   H562      1.0  0.51397  0.03036  0.93920  1.0000
  H   H563      1.0  0.40931  0.38216  0.58181  1.0000
  C   C337      1.0  0.39959  0.45292  0.51792  1.0000
  H   H564      1.0  0.39782  0.26652  0.65043  1.0000
  N   N19       1.0  0.37771  0.42024  0.51729  1.0000
  H   H565      1.0  0.66213  0.47082  0.59761  1.0000
  C   C338      1.0  0.48205  0.24031  0.67651  1.0000
  H   H566      1.0  0.56207  0.34889  0.54871  1.0000
  Fe  Fe41      1.0  0.55724  0.47549  0.96270  1.0000
  S   S81       1.0  0.59468  0.47079  0.91189  1.0000
  H   H567      1.0  0.35909  0.37476  0.62606  1.0000
  C   C339      1.0  0.52247  0.34625  0.93507  1.0000
  H   H568      1.0  0.50706  0.32772  0.91735  1.0000
  S   S82       1.0  0.49500  0.47812  0.52225  1.0000
  H   H569      1.0  0.35104  0.49790  0.96728  1.0000
  S   S83       1.0  0.42186  0.47886  0.98113  1.0000
  H   H570      1.0  0.54903  0.28410  0.76031  1.0000
  H   H571      1.0  0.54615  0.23895  0.77518  1.0000
  C   C340      1.0  0.34071  0.44200  0.89198  1.0000
  H   H572      1.0  0.45834  0.28801  0.65368  1.0000
  H   H573      1.0  0.51067  0.34748  0.96414  1.0000
  H   H574      1.0  0.65576  0.11588  0.68547  1.0000
  H   H575      1.0  0.62703  0.20114  0.71129  1.0000
  C   C341      1.0  0.53112  0.26338  0.77039  1.0000
  C   C342      1.0  0.62674  0.31030  0.97246  1.0000
  H   H576      1.0  0.50859  0.01674  0.85405  1.0000
  C   C343      1.0  0.61659  0.04526  0.51906  1.0000
  C   C344      1.0  0.52222  0.35011  0.66819  1.0000
  C   C345      1.0  0.61246  0.06800  0.94196  1.0000
  H   H577      1.0  0.48242  0.27802  0.74379  1.0000
  H   H578      1.0  0.55612  0.28847  0.68917  1.0000
  H   H579      1.0  0.34870  0.38650  0.55502  1.0000
  H   H580      1.0  0.42704  0.23933  0.62327  1.0000
  C   C346      1.0  0.64014  0.47983  0.91380  1.0000
  H   H581      1.0  0.50210  0.29981  0.80648  1.0000
  H   H582      1.0  0.64305  0.40022  0.49334  1.0000
  H   H583      1.0  0.41125  0.22488  0.66951  1.0000
  H   H584      1.0  0.59551  0.17775  0.68295  1.0000
  H   H585      1.0  0.51194  0.37538  0.67903  1.0000
  H   H586      1.0  0.40961  0.42842  0.59151  1.0000
  H   H587      1.0  0.53183  0.03539  0.69597  1.0000
  H   H588      1.0  0.60876  0.02504  0.54009  1.0000
  H   H589      1.0  0.42396  0.44861  0.53461  1.0000
  C   C347      1.0  0.57843  0.22926  0.70223  1.0000
  C   C348      1.0  0.64194  0.06961  0.53983  1.0000
  H   H590      1.0  0.57825  0.38474  0.95559  1.0000
  H   H591      1.0  0.48345  0.32049  0.69756  1.0000
  C   C349      1.0  0.64430  0.09049  0.68044  1.0000
  C   C350      1.0  0.53882  0.22205  0.69698  1.0000
  H   H592      1.0  0.65510  0.30479  0.97538  1.0000
  H   H593      1.0  0.58431  0.24669  0.72662  1.0000
  H   H594      1.0  0.59452  0.08923  0.48975  1.0000
  C   C351      1.0  0.51212  0.32069  0.69555  1.0000
  C   C352      1.0  0.41994  0.24788  0.65268  1.0000
  C   C353      1.0  0.37587  0.39834  0.62731  1.0000
  H   H595      1.0  0.51092  0.34541  0.63926  1.0000
  H   H596      1.0  0.47192  0.21521  0.68837  1.0000
  H   H597      1.0  0.53768  0.20988  0.66807  1.0000
  H   H598      1.0  0.53089  0.20065  0.71682  1.0000
  H   H599      1.0  0.62866  0.08318  0.56393  1.0000
  H   H600      1.0  0.37143  0.03415  0.67795  1.0000
  H   H601      1.0  0.48876  0.04256  0.79231  1.0000
  C   C354      1.0  0.45088  0.26572  0.67225  1.0000
  H   H602      1.0  0.58879  0.24172  0.67579  1.0000
  H   H603      1.0  0.52717  0.28352  0.65064  1.0000
  Fe  Fe42      1.0  0.54983  0.49825  0.51838  1.0000
  H   H604      1.0  0.58989  0.18160  0.73435  1.0000
  H   H605      1.0  0.42394  0.38801  0.52232  1.0000
  H   H606      1.0  0.45693  0.00844  0.78693  1.0000
  H   H607      1.0  0.64769  0.47072  0.85334  1.0000
  C   C355      1.0  0.58211  0.35724  0.96496  1.0000
  H   H608      1.0  0.61848  0.29564  0.94640  1.0000
  C   C356      1.0  0.39270  0.40515  0.58833  1.0000
  C   C357      1.0  0.54733  0.01411  0.49925  1.0000
  C   C358      1.0  0.65689  0.06142  0.70071  1.0000
  H   H609      1.0  0.65549  0.41588  0.97405  1.0000
  H   H610      1.0  0.63077  0.03258  0.49509  1.0000
  C   C359      1.0  0.40046  0.39036  0.50394  1.0000
  C   C360      1.0  0.67074  0.46289  0.51969  1.0000
  H   H611      1.0  0.65257  0.08935  0.51972  1.0000
  H   H612      1.0  0.36936  0.48250  0.56113  1.0000
  N   N20       1.0  0.62057  0.34890  0.96733  1.0000
  H   H613      1.0  0.34655  0.43102  0.56804  1.0000
  H   H614      1.0  0.46995  0.04324  0.95033  1.0000
  C   C361      1.0  0.48336  0.01463  0.79787  1.0000
  H   H615      1.0  0.35995  0.42114  0.63642  1.0000
  C   C362      1.0  0.61254  0.08082  0.97970  1.0000
  H   H616      1.0  0.46256  0.02632  0.85431  1.0000
  C   C363      1.0  0.63736  0.36052  0.93039  1.0000
  H   H617      1.0  0.62711  0.34516  0.90579  1.0000
  H   H618      1.0  0.64177  0.49007  0.97426  1.0000
  H   H619      1.0  0.37639  0.38758  0.98381  1.0000
  H   H620      1.0  0.34102  0.35943  0.90407  1.0000
  H   H621      1.0  0.33972  0.33759  0.97095  1.0000
  C   C364      1.0  0.42221  0.08463  0.48794  1.0000
  C   C365      1.0  0.34765  0.42402  0.48922  1.0000
  H   H622      1.0  0.40868  0.45941  0.48855  1.0000
  Fe  Fe43      1.0  0.51563  0.84941  0.05919  1.0000
  S   S84       1.0  0.46850  0.81702  0.04835  1.0000
  S   S85       1.0  0.53620  0.88325  0.01149  1.0000
  Fe  Fe44      1.0  0.52224  0.82450  0.14185  1.0000
  S   S86       1.0  0.47541  0.78894  0.13618  1.0000
  S   S87       1.0  0.54198  0.83448  0.20247  1.0000
  Fe  Fe45      1.0  0.49781  0.77386  0.07849  1.0000
  S   S88       1.0  0.49355  0.72385  0.04252  1.0000
  Fe  Fe46      1.0  0.45096  0.83472  0.10644  1.0000
  S   S89       1.0  0.39771  0.85863  0.11498  1.0000
  S   S90       1.0  0.54668  0.80598  0.08637  1.0000
  S   S91       1.0  0.49606  0.87079  0.11477  1.0000
  S   S92       1.0  0.54758  0.56741  0.06771  1.0000
  H   H623      1.0  0.50066  0.00366  0.46316  1.0000
  H   H624      1.0  0.43326  0.99830  0.03107  1.0000
  H   H625      1.0  0.66930  0.99677  0.09437  1.0000
  H   H626      1.0  0.56224  0.80561  0.99650  1.0000
  H   H627      1.0  0.54457  0.74244  0.48357  1.0000
  H   H628      1.0  0.60430  0.51879  0.30822  1.0000
  C   C366      1.0  0.53530  0.71527  0.47899  1.0000
  C   C367      1.0  0.63045  0.87003  0.44396  1.0000
  H   H629      1.0  0.35542  0.91248  0.14908  1.0000
  C   C368      1.0  0.38660  0.86732  0.16303  1.0000
  C   C369      1.0  0.39810  0.84542  0.19253  1.0000
  C   C370      1.0  0.38655  0.85093  0.23027  1.0000
  C   C371      1.0  0.36465  0.87920  0.23894  1.0000
  H   H630      1.0  0.38100  0.54224  0.42765  1.0000
  C   C372      1.0  0.36458  0.89553  0.17169  1.0000
  H   H631      1.0  0.41493  0.82351  0.18609  1.0000
  C   C373      1.0  0.36609  0.59008  0.17456  1.0000
  C   C374      1.0  0.66218  0.53464  0.48255  1.0000
  C   C375      1.0  0.58231  0.85324  0.21577  1.0000
  C   C376      1.0  0.58560  0.86749  0.25271  1.0000
  C   C377      1.0  0.61743  0.88164  0.26535  1.0000
  H   H632      1.0  0.65908  0.55650  0.07021  1.0000
  H   H633      1.0  0.59929  0.90127  0.36173  1.0000
  H   H634      1.0  0.62987  0.91466  0.00716  1.0000
  H   H635      1.0  0.56345  0.86707  0.27174  1.0000
  H   H636      1.0  0.61969  0.89242  0.29387  1.0000
  H   H637      1.0  0.50314  0.89668  0.37527  1.0000
  H   H638      1.0  0.58216  0.96619  0.01391  1.0000
  C   C378      1.0  0.53108  0.61041  0.06099  1.0000
  C   C379      1.0  0.54043  0.63670  0.08731  1.0000
  C   C380      1.0  0.52880  0.67142  0.08253  1.0000
  C   C381      1.0  0.50796  0.68033  0.05102  1.0000
  C   C382      1.0  0.49889  0.65409  0.02450  1.0000
  C   C383      1.0  0.51019  0.61930  0.02951  1.0000
  H   H639      1.0  0.55671  0.63016  0.11165  1.0000
  H   H640      1.0  0.53614  0.69129  0.10307  1.0000
  H   H641      1.0  0.48278  0.66066  0.00003  1.0000
  H   H642      1.0  0.50283  0.59942  0.00898  1.0000
  H   H643      1.0  0.61456  0.74363  0.36982  1.0000
  H   H644      1.0  0.66990  0.59102  0.48594  1.0000
  H   H645      1.0  0.34529  0.93987  0.46421  1.0000
  C   C384      1.0  0.52200  0.98946  0.47769  1.0000
  H   H646      1.0  0.36075  0.86243  0.04610  1.0000
  H   H647      1.0  0.46648  0.97014  0.04733  1.0000
  H   H648      1.0  0.57813  0.57729  0.41574  1.0000
  H   H649      1.0  0.55527  0.91706  0.31262  1.0000
  S   S93       1.0  0.61642  0.94027  0.43561  1.0000
  C   C385      1.0  0.61679  0.00320  0.22811  1.0000
  H   H650      1.0  0.60873  0.99073  0.07104  1.0000
  H   H651      1.0  0.56589  0.88332  0.39192  1.0000
  H   H652      1.0  0.54674  0.93758  0.35822  1.0000
  H   H653      1.0  0.60922  0.84140  0.16327  1.0000
  C   C386      1.0  0.62585  0.83740  0.46157  1.0000
  H   H654      1.0  0.54105  0.96265  0.15945  1.0000
  C   C387      1.0  0.59702  0.69451  0.48249  1.0000
  C   C388      1.0  0.64353  0.86603  0.20469  1.0000
  H   H655      1.0  0.48273  0.95493  0.36284  1.0000
  H   H656      1.0  0.62689  0.60330  0.03789  1.0000
  H   H657      1.0  0.35923  0.58891  0.14358  1.0000
  C   C389      1.0  0.58093  0.99400  0.24428  1.0000
  H   H658      1.0  0.52312  0.65742  0.44131  1.0000
  H   H659      1.0  0.39805  0.94332  0.04897  1.0000
  H   H660      1.0  0.56909  0.63892  0.39886  1.0000
  H   H661      1.0  0.55862  0.76495  0.42830  1.0000
  N   N21       1.0  0.56320  0.69333  0.46013  1.0000
  H   H662      1.0  0.37466  0.56381  0.18429  1.0000
  C   C390      1.0  0.54955  0.65670  0.45470  1.0000
  H   H663      1.0  0.60918  0.96767  0.18167  1.0000
  H   H664      1.0  0.57964  0.69849  0.02622  1.0000
  C   C391      1.0  0.58058  0.74772  0.41979  1.0000
  H   H665      1.0  0.34328  0.60401  0.22864  1.0000
  Fe  Fe47      1.0  0.36248  0.98884  0.36651  1.0000
  H   H666      1.0  0.40192  0.99688  0.09080  1.0000
  H   H667      1.0  0.52125  0.99537  0.06168  1.0000
  H   H668      1.0  0.55618  0.00441  0.14244  1.0000
  H   H669      1.0  0.34043  0.84699  0.00369  1.0000
  C   C392      1.0  0.63899  0.58281  0.01967  1.0000
  C   C393      1.0  0.54262  0.97995  0.13398  1.0000
  H   H670      1.0  0.59863  0.78695  0.37970  1.0000
  C   C394      1.0  0.46026  0.91867  0.25028  1.0000
  C   C395      1.0  0.49878  0.97865  0.30927  1.0000
  C   C396      1.0  0.47387  0.92248  0.20935  1.0000
  H   H671      1.0  0.51391  0.92208  0.27043  1.0000
  H   H672      1.0  0.64017  0.51703  0.47526  1.0000
  H   H673      1.0  0.53668  0.97407  0.45601  1.0000
  H   H674      1.0  0.43998  0.89805  0.24981  1.0000
  H   H675      1.0  0.60292  0.75267  0.43932  1.0000
  H   H676      1.0  0.58853  0.57345  0.99521  1.0000
  H   H677      1.0  0.46092  0.89176  0.02077  1.0000
  H   H678      1.0  0.63852  0.57705  0.45062  1.0000
  H   H679      1.0  0.56124  0.75921  0.00353  1.0000
  H   H680      1.0  0.62306  0.68159  0.03242  1.0000
  H   H681      1.0  0.43181  0.92335  0.07798  1.0000
  C   C397      1.0  0.59150  0.75883  0.37948  1.0000
  H   H682      1.0  0.57556  0.86338  0.34604  1.0000
  H   H683      1.0  0.39331  0.85682  0.36092  1.0000
  H   H684      1.0  0.66616  0.86463  0.18635  1.0000
  C   C398      1.0  0.57332  0.88855  0.36169  1.0000
  H   H685      1.0  0.64009  0.81494  0.45110  1.0000
  H   H686      1.0  0.43898  0.99738  0.48535  1.0000
  H   H687      1.0  0.44950  0.95941  0.32847  1.0000
  H   H688      1.0  0.59056  0.69403  0.40577  1.0000
  H   H689      1.0  0.52710  0.97418  0.31264  1.0000
  H   H690      1.0  0.49113  0.99793  0.99554  1.0000
  H   H691      1.0  0.49279  0.97788  0.27821  1.0000
  C   C399      1.0  0.64663  0.88067  0.24155  1.0000
  H   H692      1.0  0.56131  0.99217  0.22089  1.0000
  C   C400      1.0  0.56954  0.70867  0.42076  1.0000
  C   C401      1.0  0.59906  0.98935  0.00960  1.0000
  C   C402      1.0  0.46945  0.90763  0.99697  1.0000
  H   H693      1.0  0.58221  0.63531  0.01081  1.0000
  C   C403      1.0  0.64864  0.57212  0.47997  1.0000
  C   C404      1.0  0.57246  0.63229  0.42967  1.0000
  C   C405      1.0  0.50583  0.98803  0.11945  1.0000
  S   S94       1.0  0.44806  0.50836  0.43063  1.0000
  H   H694      1.0  0.35583  0.96724  0.00273  1.0000
  C   C406      1.0  0.61133  0.85287  0.19155  1.0000
  H   H695      1.0  0.49272  0.94437  0.20757  1.0000
  H   H696      1.0  0.38864  0.80270  0.04786  1.0000
  H   H697      1.0  0.43698  0.97697  0.11661  1.0000
  C   C407      1.0  0.63087  0.97384  0.20173  1.0000
  H   H698      1.0  0.45216  0.87278  0.38702  1.0000
  C   C408      1.0  0.56199  0.59408  0.43468  1.0000
  H   H699      1.0  0.35845  0.90283  0.98814  1.0000
  H   H700      1.0  0.56613  0.58560  0.46486  1.0000
  H   H701      1.0  0.42576  0.90673  0.31282  1.0000
  H   H702      1.0  0.60049  0.63491  0.43703  1.0000
  H   H703      1.0  0.63462  0.95020  0.21989  1.0000
  H   H704      1.0  0.36191  0.76507  0.05667  1.0000
  H   H705      1.0  0.45175  0.92794  0.18957  1.0000
  H   H706      1.0  0.58206  0.96884  0.26008  1.0000
  C   C409      1.0  0.47712  0.95125  0.33172  1.0000
  S   S95       1.0  0.64308  0.96153  0.32867  1.0000
  H   H707      1.0  0.54568  0.64346  0.48261  1.0000
  S   S96       1.0  0.34955  0.88461  0.28618  1.0000
  C   C410      1.0  0.48978  0.90812  0.27865  1.0000
  H   H708      1.0  0.36183  0.78454  0.00975  1.0000
  H   H709      1.0  0.48675  0.89792  0.19993  1.0000
  C   C411      1.0  0.59175  0.65440  0.98951  1.0000
  H   H710      1.0  0.61973  0.69093  0.46300  1.0000
  H   H711      1.0  0.51233  0.71733  0.45940  1.0000
  C   C412      1.0  0.42455  0.97898  0.08803  1.0000
  H   H712      1.0  0.38124  0.90244  0.36254  1.0000
  C   C413      1.0  0.36327  0.79022  0.04093  1.0000
  C   C414      1.0  0.44774  0.89429  0.32871  1.0000
  H   H713      1.0  0.43984  0.91825  0.38598  1.0000
  H   H714      1.0  0.39144  0.87973  0.40624  1.0000
  C   C415      1.0  0.60252  0.68754  0.01086  1.0000
  H   H715      1.0  0.56974  0.75505  0.35879  1.0000
  H   H716      1.0  0.58765  0.98878  0.37886  1.0000
  N   N22       1.0  0.48151  0.91328  0.32063  1.0000
  C   C416      1.0  0.39829  0.88217  0.37543  1.0000
  H   H717      1.0  0.44744  0.94346  0.25882  1.0000
  H   H718      1.0  0.51174  0.86788  0.33634  1.0000
  H   H719      1.0  0.54579  0.70593  0.40246  1.0000
  C   C417      1.0  0.63549  0.97891  0.99410  1.0000
  C   C418      1.0  0.64482  0.93360  0.13192  1.0000
  C   C419      1.0  0.43648  0.89267  0.37149  1.0000
  H   H720      1.0  0.49578  0.88009  0.27272  1.0000
  H   H721      1.0  0.44899  0.86692  0.31780  1.0000
  C   C420      1.0  0.54653  0.91241  0.34238  1.0000
  H   H722      1.0  0.63036  0.95447  0.11685  1.0000
  H   H723      1.0  0.39067  0.93511  0.09909  1.0000
  H   H724      1.0  0.65069  0.96885  0.01899  1.0000
  H   H725      1.0  0.61763  0.54042  0.05395  1.0000
  C   C421      1.0  0.61187  0.89904  0.45712  1.0000
  H   H726      1.0  0.62571  0.91886  0.14946  1.0000
  H   H727      1.0  0.55795  0.96625  0.11154  1.0000
  H   H728      1.0  0.53413  0.59026  0.42695  1.0000
  N   N23       1.0  0.66389  0.98176  0.17973  1.0000
  Fe  Fe48      1.0  0.53441  0.51858  0.03268  1.0000
  C   C422      1.0  0.41045  0.94299  0.07770  1.0000
  C   C423      1.0  0.50972  0.89605  0.34426  1.0000
  S   S97       1.0  0.38174  0.97594  0.30765  1.0000
  C   C424      1.0  0.37761  0.51627  0.41603  1.0000
  C   C425      1.0  0.55975  0.52054  0.34501  1.0000
  H   H729      1.0  0.64809  0.87258  0.42000  1.0000
  H   H730      1.0  0.49340  0.96262  0.11259  1.0000
  H   H731      1.0  0.61223  0.70751  0.99047  1.0000
  H   H732      1.0  0.38827  0.60842  0.17818  1.0000
  C   C426      1.0  0.35420  0.90190  0.20969  1.0000
  C   C427      1.0  0.44982  0.99245  0.05664  1.0000
  S   S98       1.0  0.40184  0.98731  0.41502  1.0000
  H   H733      1.0  0.49153  0.00071  0.14326  1.0000
  H   H734      1.0  0.57547  0.52130  0.37181  1.0000
  Fe  Fe49      1.0  0.65708  0.94676  0.38913  1.0000
  C   C428      1.0  0.64337  0.55016  0.04434  1.0000
  H   H735      1.0  0.63799  0.89702  0.08498  1.0000
  H   H736      1.0  0.55309  0.54776  0.33679  1.0000
  H   H737      1.0  0.66534  0.59193  0.01206  1.0000
  H   H738      1.0  0.65698  0.52930  0.02808  1.0000
  H   H739      1.0  0.39464  0.83328  0.25280  1.0000
  C   C429      1.0  0.65965  0.90848  0.10203  1.0000
  H   H740      1.0  0.61593  0.84910  0.99804  1.0000
  H   H741      1.0  0.63765  0.88699  0.92420  1.0000
  S   S99       1.0  0.42783  0.98061  0.92610  1.0000
  H   H742      1.0  0.53581  0.99265  0.79407  1.0000
  H   H743      1.0  0.58218  0.62292  0.90848  1.0000
  S   S100      1.0  0.40624  0.84641  0.81177  1.0000
  S   S101      1.0  0.40991  0.94654  0.82062  1.0000
  H   H744      1.0  0.53691  0.58877  0.86784  1.0000
  Fe  Fe50      1.0  0.53684  0.81126  0.64505  1.0000
  S   S102      1.0  0.55695  0.76760  0.68185  1.0000
  S   S103      1.0  0.50012  0.85468  0.66266  1.0000
  Fe  Fe51      1.0  0.58079  0.78896  0.57573  1.0000
  S   S104      1.0  0.60456  0.74401  0.60764  1.0000
  C   C430      1.0  0.58319  0.60125  0.92979  1.0000
  Fe  Fe52      1.0  0.55047  0.73365  0.62887  1.0000
  S   S105      1.0  0.52002  0.68263  0.62336  1.0000
  Fe  Fe53      1.0  0.60892  0.78202  0.65672  1.0000
  H   H745      1.0  0.49118  0.73399  0.68356  1.0000
  S   S106      1.0  0.52633  0.77687  0.59411  1.0000
  S   S107      1.0  0.58915  0.82759  0.62301  1.0000
  S   S108      1.0  0.57877  0.54013  0.55258  1.0000
  C   C431      1.0  0.53692  0.64396  0.60199  1.0000
  C   C432      1.0  0.57238  0.63554  0.60396  1.0000
  C   C433      1.0  0.58466  0.60381  0.58843  1.0000
  C   C434      1.0  0.56177  0.58019  0.57051  1.0000
  C   C435      1.0  0.52636  0.58881  0.56798  1.0000
  C   C436      1.0  0.51400  0.62037  0.58400  1.0000
  H   H746      1.0  0.59027  0.65321  0.61808  1.0000
  H   H747      1.0  0.61204  0.59734  0.59076  1.0000
  H   H748      1.0  0.50841  0.57086  0.55441  1.0000
  H   H749      1.0  0.48649  0.62645  0.58253  1.0000
  H   H750      1.0  0.54002  0.92623  0.76013  1.0000
  H   H751      1.0  0.46170  0.76794  0.64504  1.0000
  C   C437      1.0  0.62738  0.86288  0.76673  1.0000
  C   C438      1.0  0.62736  0.83622  0.73903  1.0000
  H   H752      1.0  0.60366  0.86887  0.78213  1.0000
  H   H753      1.0  0.60374  0.82176  0.73322  1.0000
  C   C439      1.0  0.43401  0.84987  0.77174  1.0000
  C   C440      1.0  0.45958  0.82430  0.76513  1.0000
  C   C441      1.0  0.48089  0.82598  0.73235  1.0000
  C   C442      1.0  0.47634  0.85301  0.70583  1.0000
  C   C443      1.0  0.45123  0.87884  0.71289  1.0000
  C   C444      1.0  0.43025  0.87741  0.74579  1.0000
  H   H754      1.0  0.46270  0.80301  0.78519  1.0000
  H   H755      1.0  0.50038  0.80613  0.72722  1.0000
  H   H756      1.0  0.44750  0.89969  0.69241  1.0000
  H   H757      1.0  0.41046  0.89711  0.75045  1.0000
  H   H758      1.0  0.58257  0.77675  0.96170  1.0000
  H   H759      1.0  0.57410  0.91762  0.49768  1.0000
  C   C445      1.0  0.49138  0.94981  0.93617  1.0000
  H   H760      1.0  0.50019  0.96666  0.91335  1.0000
  H   H761      1.0  0.46723  0.71853  0.84026  1.0000
  H   H762      1.0  0.36391  0.75345  0.66218  1.0000
  H   H763      1.0  0.56701  0.86017  0.52999  1.0000
  H   H764      1.0  0.63927  0.65410  0.55973  1.0000
  C   C446      1.0  0.57495  0.56697  0.90785  1.0000
  N   N24       1.0  0.63599  0.95288  0.96146  1.0000
  H   H765      1.0  0.43893  0.79698  0.67491  1.0000
  H   H766      1.0  0.63545  0.86626  0.56817  1.0000
  H   H767      1.0  0.39924  0.62412  0.65062  1.0000
  C   C447      1.0  0.44805  0.97954  0.65329  1.0000
  H   H768      1.0  0.47270  0.69213  0.69341  1.0000
  C   C448      1.0  0.48711  0.72083  0.52827  1.0000
  H   H769      1.0  0.54909  0.92898  0.61538  1.0000
  H   H770      1.0  0.49010  0.70138  0.88175  1.0000
  H   H771      1.0  0.48891  0.74964  0.52546  1.0000
  H   H772      1.0  0.40764  0.86540  0.96163  1.0000
  H   H773      1.0  0.56949  0.97923  0.73846  1.0000
  H   H774      1.0  0.52409  0.75131  0.94703  1.0000
  C   C449      1.0  0.43502  0.77476  0.65489  1.0000
  H   H775      1.0  0.51210  0.70493  0.83629  1.0000
  N   N25       1.0  0.41854  0.74429  0.67539  1.0000
  C   C450      1.0  0.56744  0.93476  0.59166  1.0000
  H   H776      1.0  0.59795  0.98668  0.85474  1.0000
  C   C451      1.0  0.45628  0.94989  0.94674  1.0000
  H   H777      1.0  0.56124  0.91691  0.56754  1.0000
  C   C452      1.0  0.48420  0.98276  0.67143  1.0000
  H   H778      1.0  0.50814  0.76888  0.83847  1.0000
  H   H779      1.0  0.47949  0.71443  0.55815  1.0000
  H   H780      1.0  0.56863  0.91516  0.67891  1.0000
  H   H781      1.0  0.56957  0.99701  0.50743  1.0000
  C   C453      1.0  0.39945  0.84032  0.94852  1.0000
  H   H782      1.0  0.66733  0.82731  0.61509  1.0000
  H   H783      1.0  0.66526  0.87993  0.96463  1.0000
  H   H784      1.0  0.37296  0.84355  0.93609  1.0000
  H   H785      1.0  0.60913  0.94589  0.63052  1.0000
  H   H786      1.0  0.62599  0.96546  0.56463  1.0000
  H   H787      1.0  0.58972  0.85504  0.95523  1.0000
  H   H788      1.0  0.42015  0.52198  0.50887  1.0000
  H   H789      1.0  0.52821  0.83186  0.94305  1.0000
  H   H790      1.0  0.42860  0.84330  0.62645  1.0000
  C   C454      1.0  0.41520  0.78842  0.61898  1.0000
  H   H791      1.0  0.48217  0.70109  0.76344  1.0000
  H   H792      1.0  0.59421  0.91892  0.90162  1.0000
  C   C455      1.0  0.47565  0.71911  0.70452  1.0000
  H   H793      1.0  0.42485  0.71961  0.73118  1.0000
  H   H794      1.0  0.63331  0.93765  0.88132  1.0000
  C   C456      1.0  0.63131  0.93793  0.57289  1.0000
  C   C457      1.0  0.43964  0.73651  0.71103  1.0000
  S   S109      1.0  0.35289  0.00026  0.74795  1.0000
  H   H795      1.0  0.58296  0.94476  0.83825  1.0000
  C   C458      1.0  0.62347  0.91799  0.97619  1.0000
  H   H796      1.0  0.54217  0.92846  0.94688  1.0000
  H   H797      1.0  0.54113  0.71179  0.54127  1.0000
  H   H798      1.0  0.41679  0.76910  0.59529  1.0000
  H   H799      1.0  0.45065  0.97474  0.62201  1.0000
  H   H800      1.0  0.65876  0.66855  0.51556  1.0000
  H   H801      1.0  0.64391  0.60994  0.89789  1.0000
  H   H802      1.0  0.56086  0.60560  0.94965  1.0000
  H   H803      1.0  0.39351  0.78706  0.73676  1.0000
  H   H804      1.0  0.52277  0.88430  0.82795  1.0000
  S   S110      1.0  0.36594  0.90792  0.88943  1.0000
  C   C459      1.0  0.37709  0.78712  0.71052  1.0000
  H   H805      1.0  0.56508  0.88334  0.71633  1.0000
  H   H806      1.0  0.63853  0.69974  0.54754  1.0000
  H   H807      1.0  0.50145  0.74334  0.75369  1.0000
  C   C460      1.0  0.61219  0.96658  0.93029  1.0000
  C   C461      1.0  0.54504  0.97242  0.72295  1.0000
  C   C462      1.0  0.56898  0.91155  0.71042  1.0000
  H   H808      1.0  0.44445  0.76094  0.72735  1.0000
  H   H809      1.0  0.43311  0.00409  0.65738  1.0000
  C   C463      1.0  0.43097  0.82247  0.60438  1.0000
  C   C464      1.0  0.63787  0.88481  0.95582  1.0000
  H   H810      1.0  0.47641  0.89292  0.83119  1.0000
  H   H811      1.0  0.54513  0.80309  0.90813  1.0000
  H   H812      1.0  0.51477  0.92347  0.71669  1.0000
  H   H813      1.0  0.43906  0.64435  0.63485  1.0000
  C   C465      1.0  0.41052  0.64834  0.63841  1.0000
  H   H814      1.0  0.42769  0.50998  0.55845  1.0000
  Fe  Fe54      1.0  0.37965  0.89712  0.82802  1.0000
  H   H815      1.0  0.62168  0.54928  0.97280  1.0000
  H   H816      1.0  0.44459  0.70857  0.63668  1.0000
  C   C466      1.0  0.52572  0.77782  0.95970  1.0000
  H   H817      1.0  0.60748  0.90154  0.61435  1.0000
  N   N26       1.0  0.61729  0.60210  0.95172  1.0000
  C   C467      1.0  0.51049  0.99032  0.77858  1.0000
  H   H818      1.0  0.47066  0.96163  0.72711  1.0000
  H   H819      1.0  0.60391  0.99976  0.66106  1.0000
  H   H820      1.0  0.64304  0.56559  0.91342  1.0000
  H   H821      1.0  0.42658  0.85127  0.89626  1.0000
  C   C468      1.0  0.52210  0.70358  0.51895  1.0000
  H   H822      1.0  0.66772  0.98520  0.60823  1.0000
  S   S111      1.0  0.65703  0.91340  0.81137  1.0000
  Fe  Fe55      1.0  0.35855  0.96927  0.80263  1.0000
  C   C469      1.0  0.60776  0.94356  0.89425  1.0000
  H   H823      1.0  0.53081  0.75197  0.87972  1.0000
  H   H824      1.0  0.64625  0.64142  0.98358  1.0000
  H   H825      1.0  0.59458  0.91703  0.97526  1.0000
  C   C470      1.0  0.49645  0.71686  0.74191  1.0000
  H   H826      1.0  0.45891  0.81884  0.59715  1.0000
  H   H827      1.0  0.58095  0.66989  0.53657  1.0000
  C   C471      1.0  0.53975  0.93262  0.72907  1.0000
  H   H828      1.0  0.47851  0.88252  0.90144  1.0000
  C   C472      1.0  0.62239  0.63903  0.96584  1.0000
  H   H829      1.0  0.40153  0.71923  0.62295  1.0000
  H   H830      1.0  0.52472  0.87422  0.89885  1.0000
  H   H831      1.0  0.38739  0.79374  0.62514  1.0000
  H   H832      1.0  0.38422  0.81020  0.69303  1.0000
  C   C473      1.0  0.51535  0.92868  0.95574  1.0000
  H   H833      1.0  0.62461  0.92225  0.54713  1.0000
  H   H834      1.0  0.55901  0.96754  0.87510  1.0000
  H   H835      1.0  0.51803  0.67515  0.52138  1.0000
  C   C474      1.0  0.38171  0.75268  0.68743  1.0000
  Fe  Fe56      1.0  0.39245  0.95891  0.88043  1.0000
  H   H836      1.0  0.37487  0.68117  0.66940  1.0000
  H   H837      1.0  0.56338  0.96227  0.58258  1.0000
  C   C475      1.0  0.50498  0.96361  0.50522  1.0000
  H   H838      1.0  0.50706  0.92129  0.85489  1.0000
  H   H839      1.0  0.51838  0.57329  0.91231  1.0000
  H   H840      1.0  0.41374  0.80653  0.90232  1.0000
  N   N27       1.0  0.48872  0.80835  0.90705  1.0000
  C   C476      1.0  0.47807  0.77297  0.89206  1.0000
  C   C477      1.0  0.46121  0.82099  0.93466  1.0000
  C   C478      1.0  0.49247  0.83277  0.87342  1.0000
  C   C479      1.0  0.52300  0.80656  0.92837  1.0000
  H   H841      1.0  0.62671  0.65689  0.94109  1.0000
  C   C480      1.0  0.50493  0.75435  0.86576  1.0000
  C   C481      1.0  0.49955  0.87153  0.88338  1.0000
  C   C482      1.0  0.42499  0.82952  0.91712  1.0000
  H   H842      1.0  0.55094  0.97716  0.69215  1.0000
  H   H843      1.0  0.58532  0.97048  0.94112  1.0000
  C   C483      1.0  0.49272  0.71756  0.85546  1.0000
  C   C484      1.0  0.50159  0.89375  0.84703  1.0000
  H   H844      1.0  0.45379  0.77517  0.87470  1.0000
  H   H845      1.0  0.47129  0.75521  0.91619  1.0000
  H   H846      1.0  0.45656  0.80103  0.95719  1.0000
  H   H847      1.0  0.47034  0.84449  0.95058  1.0000
  H   H848      1.0  0.46894  0.83162  0.85476  1.0000
  H   H849      1.0  0.51443  0.82434  0.85480  1.0000
  H   H850      1.0  0.41696  0.83115  0.57816  1.0000
  C   C485      1.0  0.41801  0.71348  0.64846  1.0000
  H   H851      1.0  0.52197  0.70409  0.73625  1.0000
  C   C486      1.0  0.61675  0.85254  0.96640  1.0000
  H   H852      1.0  0.43335  0.95756  0.66618  1.0000
  C   C487      1.0  0.58549  0.96190  0.86384  1.0000
  H   H853      1.0  0.41538  0.67258  0.69351  1.0000
  H   H854      1.0  0.52498  0.94777  0.52021  1.0000
  H   H855      1.0  0.62128  0.99265  0.92076  1.0000
  C   C488      1.0  0.53846  0.56812  0.89012  1.0000
  C   C489      1.0  0.60497  0.92905  0.60512  1.0000
  H   H856      1.0  0.59337  0.56275  0.88379  1.0000
  H   H857      1.0  0.53262  0.54256  0.87646  1.0000
  C   C490      1.0  0.65789  0.88170  0.77470  1.0000
  H   H858      1.0  0.59480  0.91951  0.72198  1.0000
  H   H859      1.0  0.50141  0.96329  0.78454  1.0000
  C   C491      1.0  0.40351  0.67903  0.66540  1.0000
  H   H860      1.0  0.65147  0.00607  0.70936  1.0000
  H   H861      1.0  0.49922  0.95903  0.66351  1.0000
  S   S112      1.0  0.65941  0.79160  0.68822  1.0000
  H   H862      1.0  0.47702  0.98196  0.84860  1.0000
  C   C492      1.0  0.65824  0.82729  0.72017  1.0000
  S   S113      1.0  0.51657  0.51759  0.97138  1.0000
  H   H863      1.0  0.46647  0.71103  0.50864  1.0000
  H   H864      1.0  0.39354  0.54038  0.54624  1.0000
  S   S114      1.0  0.59782  0.79256  0.51393  1.0000
  C   C493      1.0  0.63676  0.67290  0.53566  1.0000
  C   C494      1.0  0.60189  0.66753  0.51516  1.0000
  H   H865      1.0  0.57655  0.54429  0.92746  1.0000
  H   H866      1.0  0.48907  0.97766  0.52694  1.0000
  H   H867      1.0  0.62882  0.82898  0.95339  1.0000
  C   C495      1.0  0.48183  0.98636  0.71575  1.0000
  H   H868      1.0  0.65269  0.52703  0.54219  1.0000
  N   N28       1.0  0.51544  0.99548  0.73606  1.0000
  H   H869      1.0  0.39849  0.65305  0.60985  1.0000
  H   H870      1.0  0.60184  0.64041  0.50404  1.0000
  H   H871      1.0  0.39824  0.82009  0.97117  1.0000
  H   H872      1.0  0.37123  0.73133  0.70570  1.0000
  C   C496      1.0  0.58478  0.86289  0.50614  1.0000
  C   C497      1.0  0.64596  0.59294  0.92377  1.0000
  C   C498      1.0  0.66427  0.86673  0.57012  1.0000
  H   H873      1.0  0.66735  0.51747  0.60146  1.0000
  H   H874      1.0  0.56964  0.66136  0.97030  1.0000
  C   C499      1.0  0.60330  0.83386  0.49293  1.0000
  H   H875      1.0  0.35102  0.95744  0.95260  1.0000
  H   H876      1.0  0.66512  0.81015  0.56703  1.0000
  H   H877      1.0  0.64865  0.00352  0.98535  1.0000
  C   C500      1.0  0.44526  0.92856  0.97697  1.0000
  H   H878      1.0  0.62716  0.57644  0.50075  1.0000
  N   N29       1.0  0.66928  0.93333  0.58298  1.0000
  S   S115      1.0  0.34383  0.98701  0.86190  1.0000
  H   H879      1.0  0.66305  0.98267  0.51915  1.0000
  H   H880      1.0  0.66522  0.89230  0.62576  1.0000
  C   C501      1.0  0.50468  0.90793  0.98653  1.0000
  H   H881      1.0  0.66531  0.95089  0.64185  1.0000
  H   H882      1.0  0.48763  0.94573  0.48891  1.0000
  C   C502      1.0  0.56020  0.78011  0.98150  1.0000
  H   H883      1.0  0.60065  0.72080  0.49541  1.0000
  H   H884      1.0  0.50464  0.78047  0.98113  1.0000
  H   H885      1.0  0.49709  0.00568  0.65830  1.0000
  C   C503      1.0  0.40741  0.51642  0.53677  1.0000
  H   H886      1.0  0.41824  0.92898  0.98554  1.0000
  C   C504      1.0  0.61561  0.57577  0.98396  1.0000
  C   C505      1.0  0.58872  0.89528  0.48784  1.0000
  H   H887      1.0  0.46157  0.00650  0.72186  1.0000
  Fe  Fe57      1.0  0.86965  0.40474  0.34770  1.0000
  S   S116      1.0  0.91534  0.43315  0.37216  1.0000
  S   S117      1.0  0.88392  0.35160  0.32409  1.0000
  Fe  Fe58      1.0  0.81820  0.46166  0.37099  1.0000
  H   H888      1.0  0.93700  0.06859  0.01551  1.0000
  S   S118      1.0  0.76330  0.48566  0.37394  1.0000
  Fe  Fe59      1.0  0.89254  0.48066  0.34436  1.0000
  H   H889      1.0  0.99698  0.36930  0.38499  1.0000
  Fe  Fe60      1.0  0.88092  0.44499  0.42193  1.0000
  H   H890      1.0  0.72720  0.02524  0.17829  1.0000
  S   S119      1.0  0.84847  0.45146  0.31609  1.0000
  S   S120      1.0  0.83626  0.41248  0.40043  1.0000
  C   C506      1.0  0.72277  0.46795  0.38909  1.0000
  C   C507      1.0  0.71830  0.43242  0.39685  1.0000
  C   C508      1.0  0.78453  0.46865  0.47758  1.0000
  H   H891      1.0  0.74016  0.41473  0.39388  1.0000
  C   C509      1.0  0.68006  0.01461  0.11649  1.0000
  H   H892      1.0  0.91928  0.45541  0.24019  1.0000
  C   C510      1.0  0.80664  0.03490  0.99339  1.0000
  H   H893      1.0  0.89626  0.37652  0.44793  1.0000
  C   C511      1.0  0.93041  0.34376  0.20343  1.0000
  C   C512      1.0  0.90815  0.37150  0.21295  1.0000
  C   C513      1.0  0.89521  0.37515  0.25044  1.0000
  C   C514      1.0  0.90321  0.35011  0.27827  1.0000
  C   C515      1.0  0.92496  0.32197  0.26861  1.0000
  C   C516      1.0  0.93891  0.31908  0.23148  1.0000
  H   H894      1.0  0.90068  0.39011  0.19113  1.0000
  H   H895      1.0  0.87792  0.39656  0.25738  1.0000
  H   H896      1.0  0.93110  0.30241  0.28996  1.0000
  H   H897      1.0  0.95610  0.29770  0.22457  1.0000
  Fe  Fe61      1.0  0.99181  0.30422  0.14356  1.0000
  H   H898      1.0  0.85972  0.15978  0.16875  1.0000
  H   H899      1.0  0.82473  0.47311  0.01814  1.0000
  H   H900      1.0  0.99733  0.35698  0.24169  1.0000
  H   H901      1.0  0.77318  0.45183  0.45481  1.0000
  C   C517      1.0  0.99255  0.11308  0.07859  1.0000
  H   H902      1.0  0.71930  0.10406  0.20588  1.0000
  H   H903      1.0  0.71821  0.07439  0.26939  1.0000
  H   H904      1.0  0.83718  0.03110  0.45544  1.0000
  C   C518      1.0  0.98195  0.20026  0.01353  1.0000
  H   H905      1.0  0.99678  0.45142  0.31403  1.0000
  H   H906      1.0  0.84008  0.32513  0.24846  1.0000
  H   H907      1.0  0.91555  0.31812  0.46984  1.0000
  H   H908      1.0  0.94885  0.33310  0.40858  1.0000
  C   C519      1.0  0.69407  0.08136  0.25524  1.0000
  H   H909      1.0  0.80938  0.45658  0.48733  1.0000
  C   C520      1.0  0.93060  0.20181  0.20439  1.0000
  H   H910      1.0  0.83656  0.09939  0.99092  1.0000
  C   C521      1.0  0.68067  0.05142  0.09977  1.0000
  C   C522      1.0  0.85596  0.06988  0.41634  1.0000
  H   H911      1.0  0.81507  0.03938  0.38824  1.0000
  H   H912      1.0  0.69439  0.06949  0.11965  1.0000
  C   C523      1.0  0.83919  0.05384  0.38063  1.0000
  C   C524      1.0  0.94097  0.04737  0.44458  1.0000
  H   H913      1.0  0.96033  0.50272  0.01104  1.0000
  C   C525      1.0  0.98574  0.42690  0.24502  1.0000
  H   H914      1.0  0.99119  0.05014  0.41638  1.0000
  N   N30       1.0  0.88305  0.05349  0.48226  1.0000
  H   H915      1.0  0.98491  0.40790  0.22091  1.0000
  H   H916      1.0  0.81882  0.36350  0.47803  1.0000
  S   S121      1.0  0.94650  0.34047  0.15617  1.0000
  H   H917      1.0  0.69468  0.05136  0.07193  1.0000
  H   H918      1.0  0.88026  0.08298  0.40714  1.0000
  H   H919      1.0  0.67993  0.42789  0.26315  1.0000
  H   H920      1.0  0.94260  0.21569  0.17986  1.0000
  H   H921      1.0  0.87438  0.15337  0.21770  1.0000
  H   H922      1.0  0.91748  0.27806  0.08827  1.0000
  H   H923      1.0  0.79937  0.14433  0.18813  1.0000
  H   H924      1.0  0.83225  0.07475  0.35993  1.0000
  H   H925      1.0  0.79789  0.30465  0.24492  1.0000
  H   H926      1.0  0.81947  0.30824  0.29081  1.0000
  H   H927      1.0  0.68476  0.01254  0.22670  1.0000
  H   H928      1.0  0.97631  0.29457  0.40716  1.0000
  C   C526      1.0  0.86311  0.04162  0.44723  1.0000
  H   H929      1.0  0.86453  0.26687  0.27212  1.0000
  C   C527      1.0  0.68155  0.44645  0.28741  1.0000
  S   S122      1.0  0.90385  0.44483  0.48171  1.0000
  H   H930      1.0  0.97776  0.48427  0.24678  1.0000
  H   H931      1.0  0.71445  0.49063  0.30336  1.0000
  H   H932      1.0  0.69993  0.07629  0.99691  1.0000
  C   C528      1.0  0.95954  0.19397  0.23336  1.0000
  C   C529      1.0  0.93611  0.46182  0.21527  1.0000
  H   H933      1.0  0.97725  0.41097  0.42492  1.0000
  C   C530      1.0  0.69389  0.49043  0.39274  1.0000
  H   H934      1.0  0.87659  0.01932  0.43323  1.0000
  C   C531      1.0  0.99232  0.46315  0.43928  1.0000
  H   H935      1.0  0.82817  0.02965  0.01380  1.0000
  H   H936      1.0  0.92436  0.23235  0.09844  1.0000
  C   C532      1.0  0.90512  0.25406  0.09973  1.0000
  H   H937      1.0  0.88232  0.24763  0.08136  1.0000
  H   H938      1.0  0.99532  0.06363  0.04845  1.0000
  C   C533      1.0  0.97450  0.46210  0.22692  1.0000
  H   H939      1.0  0.94949  0.17753  0.25708  1.0000
  C   C534      1.0  0.82358  0.30373  0.25966  1.0000
  H   H940      1.0  0.91376  0.09563  0.45822  1.0000
  H   H941      1.0  0.83021  0.11026  0.19927  1.0000
  H   H942      1.0  0.96742  0.22136  0.02843  1.0000
  H   H943      1.0  0.97495  0.47460  0.41704  1.0000
  H   H944      1.0  0.74774  0.02100  0.24635  1.0000
  N   N31       1.0  0.86793  0.22872  0.20015  1.0000
  C   C535      1.0  0.87350  0.22875  0.15727  1.0000
  C   C536      1.0  0.84232  0.20024  0.21020  1.0000
  C   C537      1.0  0.85118  0.26322  0.21073  1.0000
  C   C538      1.0  0.90146  0.22466  0.22261  1.0000
  C   C539      1.0  0.68520  0.41957  0.40739  1.0000
  C   C540      1.0  0.89376  0.26050  0.14110  1.0000
  C   C541      1.0  0.84102  0.26825  0.25349  1.0000
  C   C542      1.0  0.85247  0.16235  0.19935  1.0000
  H   H945      1.0  0.81412  0.13802  0.23705  1.0000
  H   H946      1.0  0.96439  0.11432  0.07774  1.0000
  H   H947      1.0  0.88735  0.20487  0.14769  1.0000
  S   S123      1.0  0.98859  0.17572  0.11730  1.0000
  H   H948      1.0  0.84789  0.22803  0.14208  1.0000
  H   H949      1.0  0.92093  0.17664  0.19323  1.0000
  H   H950      1.0  0.83795  0.19927  0.24165  1.0000
  H   H951      1.0  0.81646  0.20604  0.19688  1.0000
  H   H952      1.0  0.82740  0.26774  0.19290  1.0000
  H   H953      1.0  0.86916  0.28526  0.20437  1.0000
  H   H954      1.0  0.91370  0.25054  0.22772  1.0000
  H   H955      1.0  0.89586  0.21439  0.25184  1.0000
  H   H956      1.0  0.82197  0.24852  0.26325  1.0000
  H   H957      1.0  0.92805  0.04233  0.41662  1.0000
  H   H958      1.0  0.87684  0.28408  0.14092  1.0000
  H   H959      1.0  0.91720  0.26640  0.15863  1.0000
  S   S124      1.0  0.86115  0.49488  0.39643  1.0000
  C   C543      1.0  0.82211  0.13734  0.20643  1.0000
  H   H960      1.0  0.96460  0.31705  0.36345  1.0000
  C   C544      1.0  0.69465  0.09844  0.21951  1.0000
  H   H961      1.0  0.78103  0.01054  0.21187  1.0000
  H   H962      1.0  0.85807  0.10406  0.48485  1.0000
  H   H963      1.0  0.68828  0.43145  0.31370  1.0000
  H   H964      1.0  0.96479  0.41876  0.26531  1.0000
  H   H965      1.0  0.99268  0.35031  0.45860  1.0000
  H   H966      1.0  0.93173  0.44269  0.19185  1.0000
  H   H967      1.0  0.83768  0.08992  0.42748  1.0000
  H   H968      1.0  0.70762  0.48553  0.25222  1.0000
  C   C545      1.0  0.00191  0.42587  0.42814  1.0000
  C   C546      1.0  0.97146  0.32062  0.39420  1.0000
  H   H969      1.0  0.92021  0.48922  0.13593  1.0000
  H   H970      1.0  0.71677  0.48168  0.47144  1.0000
  C   C547      1.0  0.92255  0.34105  0.48630  1.0000
  H   H971      1.0  0.00300  0.38744  0.30646  1.0000
  H   H972      1.0  0.97480  0.17498  0.02689  1.0000
  H   H973      1.0  0.92850  0.48811  0.20480  1.0000
  H   H974      1.0  0.97846  0.46351  0.46721  1.0000
  H   H975      1.0  0.98099  0.17960  0.21884  1.0000
  H   H976      1.0  0.97033  0.21854  0.24544  1.0000
  S   S125      1.0  0.99497  0.27163  0.09020  1.0000
  H   H977      1.0  0.98964  0.46690  0.20046  1.0000
  C   C548      1.0  0.91170  0.37411  0.47382  1.0000
  C   C549      1.0  0.97518  0.06621  0.43622  1.0000
  H   H978      1.0  0.85773  0.03568  0.36643  1.0000
  H   H979      1.0  0.00424  0.32223  0.30139  1.0000
  H   H980      1.0  0.68184  0.39189  0.41226  1.0000
  H   H981      1.0  0.94751  0.02192  0.45794  1.0000
  H   H982      1.0  0.79049  0.49467  0.46520  1.0000
  C   C550      1.0  0.83097  0.49108  0.99416  1.0000
  H   H983      1.0  0.79325  0.05939  0.00204  1.0000
  H   H984      1.0  0.97013  0.09184  0.42242  1.0000
  H   H985      1.0  0.73653  0.45642  0.27771  1.0000
  H   H986      1.0  0.87630  0.05522  0.99863  1.0000
  H   H987      1.0  0.67933  0.41397  0.04066  1.0000
  C   C551      1.0  0.00368  0.34378  0.39777  1.0000
  C   C552      1.0  0.71177  0.47140  0.27965  1.0000
  C   C553      1.0  0.91758  0.06950  0.47152  1.0000
  H   H988      1.0  0.99022  0.07027  0.46317  1.0000
  H   H989      1.0  0.78748  0.14068  0.99471  1.0000
  H   H990      1.0  0.00170  0.00812  0.14292  1.0000
  H   H991      1.0  0.70748  0.00689  0.12112  1.0000
  H   H992      1.0  0.71302  0.00796  0.48564  1.0000
  H   H993      1.0  0.94007  0.50308  0.09179  1.0000
  H   H994      1.0  0.87391  0.50430  0.09205  1.0000
  H   H995      1.0  0.92488  0.06046  0.92872  1.0000
  Fe  Fe62      1.0  0.85242  0.46923  0.81795  1.0000
  S   S126      1.0  0.85911  0.43880  0.76233  1.0000
  H   H996      1.0  0.86394  0.12739  0.58941  1.0000
  H   H997      1.0  0.95510  0.38180  0.79444  1.0000
  C   C554      1.0  0.88032  0.05135  0.96734  1.0000
  H   H998      1.0  0.77307  0.48629  0.53455  1.0000
  S   S127      1.0  0.71454  0.04472  0.92402  1.0000
  H   H999      1.0  0.79654  0.04352  0.93357  1.0000
  H   H1000     1.0  0.85511  0.36144  0.53601  1.0000
  H   H1001     1.0  0.87137  0.28178  0.62491  1.0000
  S   S128      1.0  0.75006  0.04170  0.82058  1.0000
  Fe  Fe63      1.0  0.96378  0.28214  0.67857  1.0000
  C   C555      1.0  0.69621  0.48552  0.88055  1.0000
  S   S129      1.0  0.92656  0.29041  0.72842  1.0000
  C   C556      1.0  0.92007  0.40373  0.49529  1.0000
  C   C557      1.0  0.91718  0.06893  0.66918  1.0000
  C   C558      1.0  0.96097  0.01923  0.66355  1.0000
  C   C559      1.0  0.84267  0.07025  0.83255  1.0000
  H   H1002     1.0  0.91461  0.02752  0.62778  1.0000
  S   S130      1.0  0.95539  0.29541  0.53405  1.0000
  C   C560      1.0  0.00415  0.40320  0.70854  1.0000
  S   S131      1.0  0.95654  0.24343  0.63030  1.0000
  H   H1003     1.0  0.80658  0.07838  0.87860  1.0000
  C   C561      1.0  0.67767  0.35714  0.92857  1.0000
  N   N32       1.0  0.69567  0.49236  0.52802  1.0000
  S   S132      1.0  0.69212  0.06727  0.73294  1.0000
  H   H1004     1.0  0.99308  0.24339  0.83054  1.0000
  H   H1005     1.0  0.82784  0.10268  0.57044  1.0000
  H   H1006     1.0  0.98463  0.30827  0.83990  1.0000
  C   C562      1.0  0.89002  0.02206  0.50722  1.0000
  C   C563      1.0  0.94214  0.33742  0.52002  1.0000
  C   C564      1.0  0.69202  0.37531  0.89294  1.0000
  C   C565      1.0  0.94021  0.40028  0.52874  1.0000
  C   C566      1.0  0.95127  0.36714  0.54112  1.0000
  H   H1007     1.0  0.76972  0.46855  0.68201  1.0000
  H   H1008     1.0  0.94705  0.42321  0.54522  1.0000
  H   H1009     1.0  0.96679  0.36457  0.56689  1.0000
  H   H1010     1.0  0.92257  0.07298  0.70019  1.0000
  H   H1011     1.0  0.69830  0.42179  0.55263  1.0000
  H   H1012     1.0  0.91978  0.50586  0.75540  1.0000
  H   H1013     1.0  0.84349  0.47570  0.97092  1.0000
  C   C567      1.0  0.67556  0.07420  0.98139  1.0000
  H   H1014     1.0  0.94711  0.10004  0.57931  1.0000
  C   C568      1.0  0.88063  0.39842  0.75603  1.0000
  C   C569      1.0  0.89960  0.39303  0.72219  1.0000
  C   C570      1.0  0.91424  0.36030  0.71385  1.0000
  C   C571      1.0  0.90951  0.33230  0.73890  1.0000
  C   C572      1.0  0.89078  0.33768  0.77299  1.0000
  C   C573      1.0  0.87653  0.37070  0.78169  1.0000
  H   H1015     1.0  0.90280  0.41427  0.70216  1.0000
  H   H1016     1.0  0.92876  0.35666  0.68774  1.0000
  H   H1017     1.0  0.88685  0.31610  0.79249  1.0000
  H   H1018     1.0  0.86130  0.37433  0.80747  1.0000
  C   C574      1.0  0.94125  0.48954  0.74406  1.0000
  H   H1019     1.0  0.84825  0.40548  0.51983  1.0000
  H   H1020     1.0  0.81165  0.12581  0.91235  1.0000
  C   C575      1.0  0.87741  0.09405  0.54135  1.0000
  H   H1021     1.0  0.92954  0.49129  0.62898  1.0000
  H   H1022     1.0  0.88091  0.45388  0.64966  1.0000
  H   H1023     1.0  0.97407  0.20014  0.98286  1.0000
  H   H1024     1.0  0.72518  0.46754  0.57396  1.0000
  N   N33       1.0  0.84878  0.06369  0.94477  1.0000
  H   H1025     1.0  0.84586  0.02492  0.54769  1.0000
  H   H1026     1.0  0.88475  0.07248  0.56095  1.0000
  C   C576      1.0  0.99734  0.07496  0.57742  1.0000
  H   H1027     1.0  0.71343  0.01514  0.64797  1.0000
  H   H1028     1.0  0.98167  0.34928  0.74602  1.0000
  H   H1029     1.0  0.87629  0.04193  0.89613  1.0000
  N   N34       1.0  0.84668  0.40193  0.60399  1.0000
  C   C577      1.0  0.82037  0.39344  0.57306  1.0000
  C   C578      1.0  0.82743  0.40812  0.64111  1.0000
  C   C579      1.0  0.86679  0.43388  0.59196  1.0000
  C   C580      1.0  0.87203  0.37222  0.60990  1.0000
  C   C581      1.0  0.85561  0.33570  0.61630  1.0000
  H   H1030     1.0  0.93080  0.46308  0.73837  1.0000
  C   C582      1.0  0.89340  0.44814  0.62172  1.0000
  C   C583      1.0  0.80452  0.44156  0.64280  1.0000
  H   H1031     1.0  0.79438  0.34628  0.51778  1.0000
  H   H1032     1.0  0.96090  0.47533  0.79984  1.0000
  H   H1033     1.0  0.78467  0.44172  0.61965  1.0000
  H   H1034     1.0  0.80343  0.41640  0.56727  1.0000
  H   H1035     1.0  0.80227  0.37261  0.58284  1.0000
  H   H1036     1.0  0.80995  0.38571  0.64742  1.0000
  H   H1037     1.0  0.84584  0.40896  0.66585  1.0000
  H   H1038     1.0  0.84874  0.45537  0.58358  1.0000
  H   H1039     1.0  0.88195  0.42833  0.56555  1.0000
  H   H1040     1.0  0.89052  0.37030  0.58548  1.0000
  H   H1041     1.0  0.88883  0.37735  0.63532  1.0000
  H   H1042     1.0  0.83930  0.32770  0.59151  1.0000
  H   H1043     1.0  0.83928  0.33554  0.64252  1.0000
  Fe  Fe64      1.0  0.70831  0.02752  0.77785  1.0000
  C   C584      1.0  0.86165  0.08052  0.50309  1.0000
  H   H1044     1.0  0.91471  0.42897  0.62652  1.0000
  H   H1045     1.0  0.71129  0.46178  0.64272  1.0000
  H   H1046     1.0  0.90101  0.10985  0.53543  1.0000
  C   C585      1.0  0.68140  0.49213  0.60106  1.0000
  Fe  Fe65      1.0  0.80473  0.50380  0.87769  1.0000
  H   H1047     1.0  0.75359  0.44533  0.52168  1.0000
  C   C586      1.0  0.83929  0.09965  0.95913  1.0000
  C   C587      1.0  0.78518  0.44404  0.68098  1.0000
  H   H1048     1.0  0.82194  0.06584  0.81084  1.0000
  H   H1049     1.0  0.82834  0.01141  0.94193  1.0000
  H   H1050     1.0  0.93474  0.08591  0.65219  1.0000
  H   H1051     1.0  0.89006  0.50265  0.60389  1.0000
  H   H1052     1.0  0.80394  0.44446  0.70528  1.0000
  H   H1053     1.0  0.82067  0.46541  0.64014  1.0000
  H   H1054     1.0  0.87401  0.08835  0.89647  1.0000
  C   C588      1.0  0.91567  0.06901  0.95743  1.0000
  H   H1055     1.0  0.95051  0.50067  0.71649  1.0000
  H   H1056     1.0  0.93374  0.34249  0.84289  1.0000
  H   H1057     1.0  0.84421  0.14028  0.54463  1.0000
  H   H1058     1.0  0.90083  0.30665  0.59560  1.0000
  C   C589      1.0  0.91011  0.48196  0.60760  1.0000
  H   H1059     1.0  0.88981  0.07682  0.66326  1.0000
  H   H1060     1.0  0.88428  0.02271  0.96338  1.0000
  H   H1061     1.0  0.78714  0.39070  0.50169  1.0000
  C   C590      1.0  0.88372  0.30775  0.62123  1.0000
  H   H1062     1.0  0.96870  0.15487  0.60892  1.0000
  C   C591      1.0  0.85871  0.06436  0.90282  1.0000
  C   C592      1.0  0.79478  0.14845  0.96510  1.0000
  C   C593      1.0  0.97101  0.48715  0.77310  1.0000
  C   C594      1.0  0.98667  0.13386  0.60257  1.0000
  H   H1063     1.0  0.96755  0.30798  0.79297  1.0000
  H   H1064     1.0  0.76723  0.42158  0.68458  1.0000
  C   C595      1.0  0.83563  0.38273  0.53354  1.0000
  C   C596      1.0  0.82910  0.06131  0.87259  1.0000
  S   S133      1.0  0.92141  0.48498  0.94289  1.0000
  H   H1065     1.0  0.96713  0.35462  0.87660  1.0000
  C   C597      1.0  0.68554  0.42552  0.52441  1.0000
  H   H1066     1.0  0.90436  0.01493  0.67610  1.0000
  S   S134      1.0  0.83887  0.45563  0.87917  1.0000
  C   C598      1.0  0.92236  0.03059  0.65838  1.0000
  S   S135      1.0  0.98034  0.32593  0.64031  1.0000
  H   H1067     1.0  0.69063  0.36904  0.95381  1.0000
  H   H1068     1.0  0.85067  0.09805  0.83116  1.0000
  H   H1069     1.0  0.89981  0.31309  0.64704  1.0000
  H   H1070     1.0  0.68539  0.32923  0.92710  1.0000
  H   H1071     1.0  0.72076  0.37191  0.89174  1.0000
  H   H1072     1.0  0.90995  0.38399  0.88879  1.0000
  Fe  Fe66      1.0  0.71488  0.01907  0.86522  1.0000
  H   H1073     1.0  0.81916  0.03412  0.87186  1.0000
  H   H1074     1.0  0.80647  0.50253  0.98269  1.0000
  H   H1075     1.0  0.92364  0.47767  0.57983  1.0000
  C   C599      1.0  0.80708  0.37008  0.50625  1.0000
  C   C600      1.0  0.97411  0.37584  0.81787  1.0000
  H   H1076     1.0  0.97071  0.03023  0.69117  1.0000
  Fe  Fe67      1.0  0.97789  0.28638  0.59311  1.0000
  C   C601      1.0  0.99169  0.31349  0.80968  1.0000
  C   C602      1.0  0.92819  0.39391  0.86668  1.0000
  H   H1077     1.0  0.91257  0.40540  0.84294  1.0000
  H   H1078     1.0  0.97529  0.40478  0.70767  1.0000
  C   C603      1.0  0.81982  0.03777  0.95145  1.0000
  Fe  Fe68      1.0  0.88191  0.49279  0.89547  1.0000
  C   C604      1.0  0.69835  0.48767  0.64051  1.0000
  H   H1079     1.0  0.94424  0.41478  0.87993  1.0000
  C   C605      1.0  0.95123  0.36403  0.85214  1.0000
  C   C606      1.0  0.85164  0.11751  0.56263  1.0000
  H   H1080     1.0  0.86521  0.05336  0.82501  1.0000
  C   C607      1.0  0.75929  0.47196  0.51128  1.0000
  C   C608      1.0  0.97451  0.10274  0.58560  1.0000
  H   H1081     1.0  0.77162  0.16065  0.95131  1.0000
  S   S136      1.0  0.97960  0.03543  0.55908  1.0000
  H   H1082     1.0  0.98250  0.24600  0.77993  1.0000
  C   C609      1.0  0.71254  0.49538  0.91484  1.0000
  C   C610      1.0  0.70923  0.49120  0.56877  1.0000
  H   H1083     1.0  0.68626  0.40375  0.89401  1.0000
  H   H1084     1.0  0.70454  0.42006  0.50118  1.0000
  S   S137      1.0  0.89863  0.50139  0.83508  1.0000
  H   H1085     1.0  0.90978  0.02812  0.52964  1.0000
  H   H1086     1.0  0.86076  0.11835  0.95353  1.0000
  C   C611      1.0  0.00371  0.24873  0.80154  1.0000
  H   H1087     1.0  0.93346  0.07456  0.49777  1.0000
  H   H1088     1.0  0.71118  0.48438  0.85433  1.0000
  H   H1089     1.0  0.81603  0.16809  0.96634  1.0000
  C   C612      1.0  0.69252  0.49696  0.94855  1.0000
  C   C613      1.0  0.72564  0.49209  0.49967  1.0000
  C   C614      1.0  0.80609  0.11655  0.94185  1.0000
  H   H1090     1.0  0.68043  0.36405  0.86645  1.0000
  H   H1091     1.0  0.98563  0.40146  0.82585  1.0000
  H   H1092     1.0  0.00108  0.44126  0.87631  1.0000
  H   H1093     1.0  0.78369  0.09835  0.94112  1.0000
  H   H1094     1.0  0.83478  0.07070  0.50834  1.0000
  H   H1095     1.0  0.97524  0.03398  0.64105  1.0000
  H   H1096     1.0  0.91355  0.09784  0.95735  1.0000
  H   H1097     1.0  0.99313  0.46785  0.91799  1.0000
  H   H1098     1.0  0.96914  0.07111  0.97798  1.0000
  H   H1099     1.0  0.98981  0.46863  0.76123  1.0000
  H   H1100     1.0  0.97643  0.50009  0.85883  1.0000
  N   N35       1.0  0.00231  0.35105  0.80377  1.0000
  H   H1101     1.0  0.67803  0.48930  0.66311  1.0000
  C   C615      1.0  0.67536  0.06068  0.94391  1.0000
  C   C616      1.0  0.94397  0.05909  0.98640  1.0000
  C   C617      1.0  0.00441  0.49737  0.86638  1.0000
  H   H1102     1.0  0.75792  0.00910  0.97849  1.0000
  H   H1103     1.0  0.70485  0.50447  0.97525  1.0000
  H   H1104     1.0  0.94759  0.03033  0.98730  1.0000
  C   C618      1.0  0.00180  0.81776  0.09363  1.0000
  S   S138      1.0  0.95937  0.66753  0.09670  1.0000
  S   S139      1.0  0.93585  0.51390  0.31942  1.0000
  C   C619      1.0  0.91297  0.75694  0.06501  1.0000
  H   H1105     1.0  0.98507  0.55892  0.03430  1.0000
  Fe  Fe69      1.0  0.96508  0.62780  0.14335  1.0000
  S   S140      1.0  0.91615  0.60441  0.16861  1.0000
  C   C620      1.0  0.92377  0.75943  0.02294  1.0000
  H   H1106     1.0  0.91763  0.78631  0.01330  1.0000
  H   H1107     1.0  0.91152  0.54562  0.05087  1.0000
  S   S141      1.0  0.99954  0.59351  0.10811  1.0000
  S   S142      1.0  0.68712  0.89795  0.25687  1.0000
  H   H1108     1.0  0.88771  0.58206  0.00299  1.0000
  Fe  Fe70      1.0  0.68975  0.92998  0.31178  1.0000
  H   H1109     1.0  0.92086  0.61692  0.29350  1.0000
  H   H1110     1.0  0.88273  0.64107  0.06302  1.0000
  Fe  Fe71      1.0  0.73537  0.95856  0.37717  1.0000
  H   H1111     1.0  0.97728  0.82260  0.10795  1.0000
  H   H1112     1.0  0.92060  0.61860  0.04546  1.0000
  N   N36       1.0  0.99015  0.59876  0.38728  1.0000
  H   H1113     1.0  0.93754  0.56026  0.48269  1.0000
  C   C621      1.0  0.98448  0.55914  0.44754  1.0000
  C   C622      1.0  0.95826  0.52593  0.99352  1.0000
  S   S143      1.0  0.70086  0.91105  0.37197  1.0000
  S   S144      1.0  0.72779  0.97498  0.31542  1.0000
  H   H1114     1.0  0.97387  0.63474  0.43208  1.0000
  C   C623      1.0  0.82712  0.95406  0.41260  1.0000
  C   C624      1.0  0.84814  0.94552  0.44436  1.0000
  C   C625      1.0  0.88477  0.94517  0.44152  1.0000
  C   C626      1.0  0.90097  0.95403  0.40701  1.0000
  C   C627      1.0  0.96841  0.57283  0.40944  1.0000
  C   C628      1.0  0.84321  0.96162  0.37761  1.0000
  H   H1115     1.0  0.94290  0.58464  0.41731  1.0000
  H   H1116     1.0  0.69741  0.95267  0.14071  1.0000
  H   H1117     1.0  0.83596  0.93910  0.47137  1.0000
  C   C629      1.0  0.87997  0.96175  0.37493  1.0000
  H   H1118     1.0  0.94326  0.52043  0.45563  1.0000
  C   C630      1.0  0.92187  0.57824  0.20972  1.0000
  C   C631      1.0  0.89292  0.56198  0.22653  1.0000
  C   C632      1.0  0.89686  0.54170  0.25992  1.0000
  C   C633      1.0  0.81256  0.57197  0.10945  1.0000
  C   C634      1.0  0.95878  0.55361  0.25949  1.0000
  C   C635      1.0  0.95488  0.57369  0.22607  1.0000
  H   H1119     1.0  0.86735  0.56536  0.21392  1.0000
  H   H1120     1.0  0.93876  0.53233  0.13288  1.0000
  C   C636      1.0  0.97222  0.55771  0.00678  1.0000
  H   H1121     1.0  0.97736  0.58596  0.21318  1.0000
  C   C637      1.0  0.95702  0.54102  0.47222  1.0000
  H   H1122     1.0  0.78979  0.61935  0.13374  1.0000
  C   C638      1.0  0.99026  0.79628  0.44977  1.0000
  S   S145      1.0  0.78131  0.95737  0.41937  1.0000
  C   C639      1.0  0.96310  0.75091  0.01810  1.0000
  C   C640      1.0  0.92979  0.53775  0.27667  1.0000
  H   H1123     1.0  0.92941  0.63754  0.37871  1.0000
  H   H1124     1.0  0.98440  0.55038  0.27204  1.0000
  H   H1125     1.0  0.99341  0.77792  0.42537  1.0000
  N   N37       1.0  0.86132  0.57071  0.05668  1.0000
  H   H1126     1.0  0.68125  0.92803  0.17886  1.0000
  H   H1127     1.0  0.67746  0.92243  0.08223  1.0000
  H   H1128     1.0  0.89221  0.96837  0.34799  1.0000
  C   C641      1.0  0.75584  0.00185  0.22416  1.0000
  S   S146      1.0  0.94710  0.95728  0.40336  1.0000
  H   H1129     1.0  0.93357  0.65952  0.31113  1.0000
  C   C642      1.0  0.97101  0.60689  0.35042  1.0000
  H   H1130     1.0  0.69250  0.92355  0.99777  1.0000
  C   C643      1.0  0.84135  0.59135  0.08664  1.0000
  H   H1131     1.0  0.71027  0.96196  0.47525  1.0000
  H   H1132     1.0  0.68271  0.53169  0.46052  1.0000
  H   H1133     1.0  0.91694  0.73004  0.07597  1.0000
  C   C644      1.0  0.80012  0.59376  0.14356  1.0000
  H   H1134     1.0  0.90962  0.57635  0.08836  1.0000
  H   H1135     1.0  0.82740  0.96819  0.35290  1.0000
  H   H1136     1.0  0.98064  0.78187  0.47524  1.0000
  C   C645      1.0  0.87173  0.59557  0.02510  1.0000
  C   C646      1.0  0.93250  0.61869  0.35478  1.0000
  C   C647      1.0  0.72845  0.99930  0.19242  1.0000
  H   H1137     1.0  0.88495  0.76373  0.06797  1.0000
  H   H1138     1.0  0.96215  0.54969  0.39120  1.0000
  H   H1139     1.0  0.85973  0.60314  0.10785  1.0000
  H   H1140     1.0  0.82765  0.61398  0.07323  1.0000
  C   C648      1.0  0.89415  0.55561  0.07382  1.0000
  H   H1141     1.0  0.97039  0.81615  0.44177  1.0000
  H   H1142     1.0  0.79333  0.97975  0.99059  1.0000
  C   C649      1.0  0.91874  0.63545  0.31794  1.0000
  H   H1143     1.0  0.81495  0.55534  0.02573  1.0000
  H   H1144     1.0  0.82196  0.59824  0.16404  1.0000
  Fe  Fe72      1.0  0.98414  0.95212  0.45449  1.0000
  H   H1145     1.0  0.90740  0.74094  0.00638  1.0000
  H   H1146     1.0  0.91581  0.59562  0.36077  1.0000
  H   H1147     1.0  0.92844  0.77533  0.08290  1.0000
  H   H1148     1.0  0.89085  0.64251  0.32153  1.0000
  H   H1149     1.0  0.97679  0.67506  0.37822  1.0000
  H   H1150     1.0  0.84805  0.60541  0.00990  1.0000
  C   C650      1.0  0.67373  0.94894  0.15823  1.0000
  S   S147      1.0  0.69157  0.99307  0.39745  1.0000
  H   H1151     1.0  0.97787  0.76833  0.03766  1.0000
  H   H1152     1.0  0.97060  0.58340  0.33164  1.0000
  H   H1153     1.0  0.98481  0.62690  0.33335  1.0000
  C   C651      1.0  0.89391  0.62743  0.03782  1.0000
  H   H1154     1.0  0.96828  0.82092  0.01100  1.0000
  H   H1155     1.0  0.99350  0.69814  0.44255  1.0000
  H   H1156     1.0  0.96717  0.72427  0.03003  1.0000
  C   C652      1.0  0.88922  0.52638  0.10380  1.0000
  C   C653      1.0  0.78066  0.00504  0.99768  1.0000
  Fe  Fe73      1.0  0.68111  0.00530  0.33571  1.0000
  H   H1157     1.0  0.77907  0.57968  0.15888  1.0000
  H   H1158     1.0  0.99545  0.51390  0.13520  1.0000
  H   H1159     1.0  0.90049  0.93827  0.46610  1.0000
  H   H1160     1.0  0.82150  0.54652  0.12070  1.0000
  H   H1161     1.0  0.73801  0.97951  0.17181  1.0000
  H   H1162     1.0  0.82833  0.52475  0.06074  1.0000
  Fe  Fe74      1.0  0.99739  0.63527  0.06357  1.0000
  C   C654      1.0  0.69215  0.98983  0.20869  1.0000
  S   S148      1.0  0.98638  0.62825  0.00015  1.0000
  H   H1163     1.0  0.87439  0.52952  0.27293  1.0000
  C   C655      1.0  0.83848  0.54297  0.03882  1.0000
  H   H1164     1.0  0.67405  0.88689  0.11633  1.0000
  H   H1165     1.0  0.69698  0.51791  0.38651  1.0000
  H   H1166     1.0  0.69536  0.96755  0.22890  1.0000
  H   H1167     1.0  0.75992  0.97590  0.23767  1.0000
  H   H1168     1.0  0.78971  0.56712  0.09049  1.0000
  H   H1169     1.0  0.70690  0.96785  0.99378  1.0000
  S   S149      1.0  0.99851  0.75284  0.12696  1.0000
  H   H1170     1.0  0.87638  0.53691  0.12980  1.0000
  H   H1171     1.0  0.00389  0.86917  0.06790  1.0000
  C   C656      1.0  0.99618  0.63059  0.41216  1.0000
  H   H1172     1.0  0.99577  0.58054  0.46495  1.0000
  H   H1173     1.0  0.77116  0.00394  0.02771  1.0000
  C   C657      1.0  0.85574  0.51982  0.00757  1.0000
  C   C658      1.0  0.92436  0.51189  0.11674  1.0000
  C   C659      1.0  0.00155  0.66607  0.39150  1.0000
  C   C660      1.0  0.89709  0.65417  0.00554  1.0000
  H   H1174     1.0  0.87125  0.66581  0.99885  1.0000
  H   H1175     1.0  0.91507  0.67528  0.01466  1.0000
  H   H1176     1.0  0.00542  0.53996  0.44148  1.0000
  H   H1177     1.0  0.87968  0.50692  0.01852  1.0000
  Fe  Fe75      1.0  0.86167  0.54634  0.83495  1.0000
  H   H1178     1.0  0.97357  0.87703  0.97825  1.0000
  S   S150      1.0  0.88546  0.59613  0.81165  1.0000
  C   C661      1.0  0.91337  0.73966  0.67146  1.0000
  C   C662      1.0  0.96188  0.72372  0.95461  1.0000
  C   C663      1.0  0.95522  0.70465  0.71043  1.0000
  H   H1179     1.0  0.88985  0.69493  0.61311  1.0000
  S   S151      1.0  0.84778  0.53997  0.89702  1.0000
  H   H1180     1.0  0.82878  0.68609  0.73322  1.0000
  C   C664      1.0  0.70123  0.94372  0.97717  1.0000
  H   H1181     1.0  0.69559  0.99724  0.55293  1.0000
  C   C665      1.0  0.91823  0.97723  0.87254  1.0000
  S   S152      1.0  0.93439  0.96210  0.94901  1.0000
  H   H1182     1.0  0.93803  0.67968  0.56666  1.0000
  S   S153      1.0  0.96363  0.94995  0.51415  1.0000
  H   H1183     1.0  0.85393  0.65052  0.75353  1.0000
  C   C666      1.0  0.95285  0.58593  0.94853  1.0000
  H   H1184     1.0  0.93351  0.80835  0.60886  1.0000
  H   H1185     1.0  0.67472  0.86930  0.54068  1.0000
  H   H1186     1.0  0.93317  0.72694  0.95201  1.0000
  H   H1187     1.0  0.75119  0.99093  0.66375  1.0000
  S   S154      1.0  0.73700  0.96484  0.85988  1.0000
  H   H1188     1.0  0.91709  0.96604  0.64207  1.0000
  H   H1189     1.0  0.86882  0.55581  0.74385  1.0000
  H   H1190     1.0  0.92513  0.55346  0.90815  1.0000
  H   H1191     1.0  0.89505  0.91077  0.61951  1.0000
  C   C667      1.0  0.90641  0.96630  0.90851  1.0000
  H   H1192     1.0  0.98034  0.78939  0.93045  1.0000
  H   H1193     1.0  0.93071  0.81070  0.66030  1.0000
  C   C668      1.0  0.94071  0.52437  0.95818  1.0000
  C   C669      1.0  0.92039  0.90637  0.60493  1.0000
  C   C670      1.0  0.90680  0.59126  0.76719  1.0000
  C   C671      1.0  0.93769  0.60967  0.75985  1.0000
  C   C672      1.0  0.95475  0.60619  0.72429  1.0000
  C   C673      1.0  0.94024  0.58538  0.69546  1.0000
  C   C674      1.0  0.90918  0.56735  0.70268  1.0000
  C   C675      1.0  0.89271  0.56998  0.73853  1.0000
  H   H1194     1.0  0.94856  0.62634  0.78187  1.0000
  H   H1195     1.0  0.96002  0.67812  0.72220  1.0000
  C   C676      1.0  0.85781  0.00604  0.52747  1.0000
  H   H1196     1.0  0.73101  0.90772  0.94122  1.0000
  H   H1197     1.0  0.87918  0.95342  0.53174  1.0000
  H   H1198     1.0  0.89257  0.79946  0.63202  1.0000
  H   H1199     1.0  0.95062  0.60898  0.93089  1.0000
  C   C677      1.0  0.68851  0.87372  0.75480  1.0000
  C   C678      1.0  0.93823  0.55444  0.93565  1.0000
  H   H1200     1.0  0.98875  0.74722  0.69045  1.0000
  H   H1201     1.0  0.71851  0.93244  0.55249  1.0000
  H   H1202     1.0  0.97462  0.78238  0.54695  1.0000
  H   H1203     1.0  0.86124  0.95098  0.94096  1.0000
  C   C679      1.0  0.94461  0.96255  0.63335  1.0000
  H   H1204     1.0  0.70802  0.61364  0.88592  1.0000
  C   C680      1.0  0.71756  0.96235  0.62447  1.0000
  C   C681      1.0  0.71542  0.98145  0.49822  1.0000
  H   H1205     1.0  0.73278  0.97140  0.59940  1.0000
  H   H1206     1.0  0.90886  0.93788  0.77010  1.0000
  C   C682      1.0  0.89595  0.68373  0.70022  1.0000
  C   C683      1.0  0.73532  0.93136  0.95910  1.0000
  H   H1207     1.0  0.92269  0.98728  0.72757  1.0000
  S   S155      1.0  0.73152  0.97473  0.76590  1.0000
  H   H1208     1.0  0.97384  0.66325  0.91013  1.0000
  H   H1209     1.0  0.97650  0.85586  0.93221  1.0000
  H   H1210     1.0  0.93726  0.63528  0.58479  1.0000
  H   H1211     1.0  0.71276  0.83928  0.71358  1.0000
  C   C684      1.0  0.70983  0.59091  0.90557  1.0000
  H   H1212     1.0  0.92465  0.87779  0.60241  1.0000
  H   H1213     1.0  0.94562  0.98273  0.86845  1.0000
  Fe  Fe76      1.0  0.00339  0.90788  0.52528  1.0000
  Fe  Fe77      1.0  0.00527  0.98923  0.52840  1.0000
  H   H1214     1.0  0.72850  0.93704  0.63427  1.0000
  H   H1215     1.0  0.73464  0.51921  0.49363  1.0000
  H   H1216     1.0  0.71221  0.88792  0.76101  1.0000
  S   S156      1.0  0.98367  0.85665  0.55115  1.0000
  H   H1217     1.0  0.92326  0.74537  0.60956  1.0000
  C   C685      1.0  0.68938  0.97727  0.53098  1.0000
  H   H1218     1.0  0.00005  0.70494  0.67062  1.0000
  C   C686      1.0  0.85058  0.67934  0.75292  1.0000
  C   C687      1.0  0.97571  0.71991  0.91301  1.0000
  H   H1219     1.0  0.68194  0.92263  0.52356  1.0000
  H   H1220     1.0  0.75441  0.92478  0.98199  1.0000
  H   H1221     1.0  0.70894  0.98068  0.68295  1.0000
  C   C688      1.0  0.67828  0.95871  0.61466  1.0000
  H   H1222     1.0  0.96781  0.53785  0.79893  1.0000
  C   C689      1.0  0.72301  0.98891  0.65669  1.0000
  C   C690      1.0  0.96781  0.78736  0.95911  1.0000
  S   S157      1.0  0.82955  0.97995  0.80729  1.0000
  Fe  Fe78      1.0  0.77042  0.98713  0.81312  1.0000
  H   H1223     1.0  0.70527  0.89302  0.60102  1.0000
  H   H1224     1.0  0.90440  0.69076  0.76219  1.0000
  C   C691      1.0  0.88430  0.69706  0.74023  1.0000
  H   H1225     1.0  0.96001  0.75629  0.63852  1.0000
  H   H1226     1.0  0.97146  0.68474  0.86430  1.0000
  H   H1227     1.0  0.91336  0.94771  0.70111  1.0000
  S   S158      1.0  0.95936  0.58205  0.64966  1.0000
  H   H1228     1.0  0.94645  0.97501  0.60451  1.0000
  H   H1229     1.0  0.90785  0.64183  0.97926  1.0000
  C   C692      1.0  0.93133  0.75784  0.63693  1.0000
  C   C693      1.0  0.85862  0.97461  0.84674  1.0000
  H   H1230     1.0  0.70513  0.82920  0.58442  1.0000
  H   H1231     1.0  0.89784  0.55112  0.68051  1.0000
  H   H1232     1.0  0.84470  0.96296  0.56509  1.0000
  C   C694      1.0  0.87065  0.95954  0.91331  1.0000
  H   H1233     1.0  0.73684  0.58944  0.91708  1.0000
  H   H1234     1.0  0.84363  0.68816  0.78229  1.0000
  C   C695      1.0  0.99678  0.78721  0.56543  1.0000
  H   H1235     1.0  0.68897  0.57275  0.95867  1.0000
  H   H1236     1.0  0.68994  0.61971  0.95313  1.0000
  H   H1237     1.0  0.69281  0.54861  0.53281  1.0000
  S   S159      1.0  0.81535  0.51518  0.81503  1.0000
  H   H1238     1.0  0.96634  0.74197  0.89507  1.0000
  C   C696      1.0  0.67674  0.89675  0.59686  1.0000
  C   C697      1.0  0.92162  0.65939  0.58042  1.0000
  H   H1239     1.0  0.97889  0.61982  0.71897  1.0000
  C   C698      1.0  0.68398  0.59470  0.93864  1.0000
  H   H1240     1.0  0.94801  0.72123  0.73541  1.0000
  H   H1241     1.0  0.81948  0.95840  0.88692  1.0000
  C   C699      1.0  0.90735  0.67241  0.61871  1.0000
  C   C700      1.0  0.89443  0.98130  0.84185  1.0000
  H   H1242     1.0  0.94968  0.65759  0.65636  1.0000
  C   C701      1.0  0.96280  0.68607  0.89464  1.0000
  C   C702      1.0  0.98743  0.52340  0.78144  1.0000
  H   H1243     1.0  0.74659  0.95234  0.94110  1.0000
  Fe  Fe79      1.0  0.99368  0.96444  0.95730  1.0000
  H   H1244     1.0  0.72725  0.51357  0.57375  1.0000
  H   H1245     1.0  0.87990  0.72570  0.73991  1.0000
  C   C703      1.0  0.68879  0.84617  0.72801  1.0000
  H   H1246     1.0  0.93653  0.85364  0.95973  1.0000
  H   H1247     1.0  0.87238  0.68437  0.68152  1.0000
  H   H1248     1.0  0.90266  0.65555  0.70346  1.0000
  H   H1249     1.0  0.95751  0.69617  0.63056  1.0000
  C   C704      1.0  0.69076  0.93977  0.54747  1.0000
  C   C705      1.0  0.93704  0.68240  0.64704  1.0000
  H   H1250     1.0  0.91577  0.75723  0.69682  1.0000
  C   C706      1.0  0.67627  0.83125  0.58519  1.0000
  C   C707      1.0  0.84687  0.96379  0.88274  1.0000
  H   H1251     1.0  0.93387  0.68466  0.89527  1.0000
  H   H1252     1.0  0.94464  0.91300  0.75090  1.0000
  C   C708      1.0  0.92129  0.79642  0.63455  1.0000
  H   H1253     1.0  0.91928  0.91741  0.57555  1.0000
  C   C709      1.0  0.99068  0.71890  0.69645  1.0000
  H   H1254     1.0  0.88500  0.73969  0.66447  1.0000
  H   H1255     1.0  0.89147  0.65092  0.63100  1.0000
  N   N38       1.0  0.92572  0.70326  0.68163  1.0000
  H   H1256     1.0  0.89966  0.65307  0.56081  1.0000
  H   H1257     1.0  0.90372  0.99011  0.81428  1.0000
  Fe  Fe80      1.0  0.69647  0.95719  0.81367  1.0000
  H   H1258     1.0  0.70470  0.56665  0.88902  1.0000
  H   H1259     1.0  0.67983  0.97691  0.93287  1.0000
  H   H1260     1.0  0.98104  0.93784  0.69966  1.0000
  C   C710      1.0  0.93262  0.96102  0.71978  1.0000
  C   C711      1.0  0.86808  0.97386  0.55075  1.0000
  H   H1261     1.0  0.99774  0.62447  0.83322  1.0000
  C   C712      1.0  0.96545  0.85369  0.96153  1.0000
  S   S160      1.0  0.75711  0.50807  0.91726  1.0000
  C   C713      1.0  0.95032  0.92270  0.62773  1.0000
  H   H1262     1.0  0.93930  0.78867  0.95320  1.0000
  H   H1263     1.0  0.71779  0.50860  0.64584  1.0000
  H   H1264     1.0  0.97474  0.91762  0.61162  1.0000
  H   H1265     1.0  0.88756  0.98090  0.57303  1.0000
  H   H1266     1.0  0.95170  0.90881  0.65555  1.0000
  H   H1267     1.0  0.96977  0.52878  0.49751  1.0000
  H   H1268     1.0  0.98873  0.53799  0.75384  1.0000
  H   H1269     1.0  0.83771  0.99794  0.50640  1.0000
  H   H1270     1.0  0.96541  0.69835  0.96975  1.0000
  C   C714      1.0  0.96948  0.58785  0.98434  1.0000
  C   C715      1.0  0.67607  0.52639  0.52344  1.0000
  N   N39       1.0  0.97730  0.75315  0.97784  1.0000
  H   H1271     1.0  0.86257  0.53540  0.98193  1.0000
  C   C716      1.0  0.97877  0.82072  0.98143  1.0000
  H   H1272     1.0  0.74257  0.97794  0.50873  1.0000
  N   N40       1.0  0.96918  0.98054  0.66096  1.0000
  C   C717      1.0  0.93511  0.93986  0.75684  1.0000
  C   C718      1.0  0.96871  0.96416  0.70032  1.0000
  H   H1273     1.0  0.95291  0.95273  0.77769  1.0000
  H   H1274     1.0  0.67554  0.93234  0.92279  1.0000
  H   H1275     1.0  0.90214  0.00087  0.48998  1.0000
  H   H1276     1.0  0.00508  0.56224  0.84169  1.0000
  H   H1277     1.0  0.98521  0.97941  0.72056  1.0000
  C   C719      1.0  0.67286  0.95153  0.94643  1.0000
  C   C720      1.0  0.00553  0.97656  0.64485  1.0000
  H   H1278     1.0  0.00601  0.98545  0.61441  1.0000
  H   H1279     1.0  0.00456  0.71938  0.91196  1.0000
  H   H1280     1.0  0.00552  0.73241  0.57749  1.0000
