data_image0
_chemical_formula_structural       HCHCH6C2FeH2CHSH4CHC3FeHCHS2H2CH3NCHNH2CH3CH8NSH3CSHFeC4SH3CH8SCH3C2HCH6C2HC2HSHC2H3C2HC3HCH7CHC3H4C2H2NH2CHC2H7CHC3H4CSH5C2HCFeCNH3C2H6CH5NCHC2HCH3C2H6CH3CH2CH9CH2C2HC2H4C3SCNHCH2SCHFeH2CSH2CH2CH2C3HNC2H4SH3FeHC4HC2H2CHNH2C2H6FeHCH5CHSHCHCHFeCH2CH4CH3CH6SH3CHCSH4FeHSCHC2H5CHCFeHC2H3C3HC3HCHNSH2CHCHCH3C2HCH2CH2NHC2H3CHC2HCH2CH2CSHCH7CHCHCH6CHCH2CH2CSHCSH3CH2SH5CHCHSHFeSFeS2FeSFeHS2HC2HCH2SFeS4H2C4SH7CFeH2CH4C7FeH4CHCH5CH3CSH2C2HCH7CHSHCH2NH2FeSHCH2CH2CH2C2HCFeCHSFeH7CH2SH4CH3CNSH2CHSH3C2FeCH4FeH6SCHC3HSHCSC2H2SC3H2SC2H2CH2CHFeCHC2HCH3CH2CNCH2C2HC2S2H2NH2C2H2C2FeHCFeHC3HC3HCH2CHCH8SHCHC2HCH5SC3H5C2H2CH3C2HC3HC4HCHSH7FeHNCHSC2H3CSH2CH2CSH4C2FeH4CHC2H2CH5CH2C2HC2H9C2HSHCHFeH6CH2CHCSHCHCHNC3HCHC2SH3CH3SC2SH3CH2FeCHCHC2H5CFeS3CFeH2FeH3CHCSHCHCH3SCHC4H3CHC3H3C2H2C2HC3SCHC4H2C6H4C4H4CNC7HC2H2CH9CHSH7NH3SH2CNHCSFeCH2CSH3NC4HC4HC2H8SH10CHCH8C2HCH2C2HCSFeH2CH5FeCHCHCH3FeCH2C2H3FeHC2H5SHCHCSH2CHFeHSC2SCH3CH6CSH3C2SCH4SH3FeH4SH2C2NCH3SH2FeCSFeCSC2HCH2CSHCNCHSHCHFe2HFe2C2H5CSCHFeSHSCSHCHCH2CH9CS2HC2H2SH2S2H2CHFeCHCH4FeS2FeSHFeSFeHS3FeSFe2S2C6H4NH2C3H3CH2C2SHC3H8C2SC2H5CHSHC3SH2C2HCH3CHCSH6CHCNH5CHCSCH2NC10H24FeC2H2C2H3CHCFeSCH3SC2HC2HCH2CH5CHCH2C2HCH2CH6C2H5FeCNHC2H3CH2SHC3HCH3SC2H6CHC3NFe2CH3C2H2C2H2NH2SHC3H2C2H4CH6S2NC4H5CSHCH3CS2HCHC2H4C3HFeH3SHSFeH2CS2HSCSHCHSNCHCHCFeH3C3HC2HCH2CH3C2FeCHCH4SHCH3CH2CHCHCHCHSHCH5SHFeCH2CH2SFeHCFeHCHCHCHCSCH3FeSC2SHC2NC3H4SCH2FeCH2CSH2CFeH3CHCH4CH4CH3C2HSC2HC4H2CH5CHCHCHCH4C2HC3H2SCHSHC3H2CFeHCH4C2H5CH8C3H17CH5SCSFeH2FeSFeS2CFeS2CH2S2CHCHFeS2FeS2FeSFeS3H2C2H4NCNHSCH3C7H4C6H4C6H4C2H2CHCHSFeCHCH2CH2SHNCFeHCHCH6NC3HC2H13C2H3CH4CHCHCHCHCHFeHCHCHC2H3CHCSH2SHCHCH4CH3C3H2C2H3CHCHCHCHCHCHNH2CH9C2H2C2H7CH6CHSHCH2NC12H10CH12C2H4CHCSC2H3FeNH8C2H2CHCHS2CH5CH2CHCH5CSFeHNC3H2SH4C2HCSHC4H3SC2H3C4HC2H3CH3C2H2C3H3CFeH9C3HCHFeHSH4FeH2CHSH5CHFeCH2SH2CH2CFeS2FeS2FeSFeS2HSC3H4SC5H4C4H4C6H4C6SH2SNC5HC4H17SH3SC2HFeSHC2H3C3H2C3HC6NC2HC2HCH2C2H3FeHSH5CH2C2SH2CH3CH2CH2NC4HC6H9FeH13FeHCH3SCFeH3CH4CH2SC2H3CHS2CSHCFeHFeCH2CFeHCSH2CS2NC8SC2H16C2HCHS2H2SHC2HFeSCSCHCH2FeCH2CH2CHSH2FeHCHSCH2SH5C2HCH2SCHNCSC2HCHCH2FeH2FeHFeH2SHNC2HCHNHC2H5C3H3C2SH2C2HC2H4SCH5CNCH7CH2CH2CHC2H3CHCHCH3C3HCHCHC3FeHCNH4NCH9CHCH4C2H3C2H2CH2CH3CHCH7CH3C2H8CH8CHSHFeCSCHCSFeH4C3H3FeC2H3CH4CH2C2H2CHCH2CH2CHNH2SCH2CH5C2HC3HCH2C2H6CHCH3CHCH2SCH2CH2CH4SH2CH2CH3CHCHCH5C3HCHCH6C2H3CH2C3H3C2HCH5CH4CH6CHCNCH4CHCH2CHC2HC2H6CH2CH6CH3CSCH2C3HCHCH3CH3C2HFeCH6C2H2CHNC3H8CH2CH2NC2HCH5CH6CH2CH3SH5CHCH3S2H3CHC2H2C3HCH6CH3CSCH3CHCFeCNCH6C2H2SCH3CH3FeH3C2H4SH5NCHC2H2CSCHC2
_chemical_formula_sum              "H1792 C1008 Fe112 S224 N56"
_cell_length_a       36.3072
_cell_length_b       36.2661
_cell_length_c       88.6143
_cell_angle_alpha    78.5069
_cell_angle_beta     78.6326
_cell_angle_gamma    100.097

_space_group_name_H-M_alt    "P 1"
_space_group_IT_number       1

loop_
  _space_group_symop_operation_xyz
  'x, y, z'

loop_
  _atom_site_type_symbol
  _atom_site_label
  _atom_site_symmetry_multiplicity
  _atom_site_fract_x
  _atom_site_fract_y
  _atom_site_fract_z
  _atom_site_occupancy
  H   H1        1.0  0.07512  0.47086  0.14144  1.0000
  C   C1        1.0  0.15313  0.48112  0.14297  1.0000
  H   H2        1.0  0.46359  0.06947  0.16765  1.0000
  C   C2        1.0  0.46702  0.10731  0.14529  1.0000
  H   H3        1.0  0.14962  0.40378  0.20730  1.0000
  H   H4        1.0  0.00210  0.35864  0.21521  1.0000
  H   H5        1.0  0.46393  0.31321  0.15360  1.0000
  H   H6        1.0  0.45320  0.46021  0.27285  1.0000
  H   H7        1.0  0.44299  0.30839  0.21147  1.0000
  H   H8        1.0  0.45770  0.15354  0.16713  1.0000
  C   C3        1.0  0.47252  0.12977  0.17026  1.0000
  C   C4        1.0  0.28273  0.44760  0.20313  1.0000
  Fe  Fe1       1.0  0.42358  0.44929  0.23880  1.0000
  H   H9        1.0  0.08398  0.44188  0.27094  1.0000
  H   H10       1.0  0.14724  0.46830  0.21321  1.0000
  C   C5        1.0  0.41163  0.36004  0.19807  1.0000
  H   H11       1.0  0.48738  0.21051  0.21016  1.0000
  S   S1        1.0  0.46261  0.40783  0.23903  1.0000
  H   H12       1.0  0.49605  0.35816  0.17327  1.0000
  H   H13       1.0  0.39552  0.33039  0.19872  1.0000
  H   H14       1.0  0.16008  0.42596  0.16954  1.0000
  H   H15       1.0  0.46222  0.48878  0.29553  1.0000
  C   C6        1.0  0.35392  0.37335  0.21594  1.0000
  H   H16       1.0  0.30639  0.47225  0.27093  1.0000
  C   C7        1.0  0.41949  0.10032  0.21482  1.0000
  C   C8        1.0  0.47142  0.18992  0.19031  1.0000
  C   C9        1.0  0.49152  0.22109  0.19715  1.0000
  Fe  Fe2       1.0  0.34450  0.46311  0.23685  1.0000
  H   H17       1.0  0.42546  0.45220  0.30897  1.0000
  C   C10       1.0  0.48980  0.15430  0.19237  1.0000
  H   H18       1.0  0.13269  0.43023  0.08487  1.0000
  S   S2        1.0  0.41501  0.02955  0.26550  1.0000
  S   S3        1.0  0.36772  0.43612  0.25691  1.0000
  H   H19       1.0  0.39625  0.34579  0.22421  1.0000
  H   H20       1.0  0.41277  0.39651  0.21529  1.0000
  C   C11       1.0  0.27622  0.46840  0.18916  1.0000
  H   H21       1.0  0.40275  0.37935  0.18877  1.0000
  H   H22       1.0  0.29136  0.42047  0.20338  1.0000
  H   H23       1.0  0.21048  0.44540  0.16738  1.0000
  N   N1        1.0  0.46979  0.11950  0.18783  1.0000
  C   C12       1.0  0.06667  0.36297  0.28464  1.0000
  H   H24       1.0  0.43759  0.38305  0.16338  1.0000
  N   N2        1.0  0.45446  0.36209  0.19370  1.0000
  H   H25       1.0  0.05371  0.42172  0.24230  1.0000
  H   H26       1.0  0.08581  0.45756  0.21565  1.0000
  C   C13       1.0  0.46661  0.43050  0.29438  1.0000
  H   H27       1.0  0.44044  0.18245  0.19643  1.0000
  H   H28       1.0  0.05264  0.46754  0.30396  1.0000
  H   H29       1.0  0.33518  0.34650  0.21510  1.0000
  C   C14       1.0  0.04773  0.42835  0.17394  1.0000
  H   H30       1.0  0.01943  0.32463  0.07690  1.0000
  H   H31       1.0  0.45768  0.13382  0.14039  1.0000
  H   H32       1.0  0.41098  0.12721  0.19191  1.0000
  H   H33       1.0  0.48207  0.09988  0.25160  1.0000
  H   H34       1.0  0.42278  0.09076  0.16699  1.0000
  H   H35       1.0  0.47198  0.41324  0.20197  1.0000
  H   H36       1.0  0.41323  0.42442  0.28633  1.0000
  H   H37       1.0  0.04235  0.38536  0.26575  1.0000
  N   N3        1.0  0.10894  0.44680  0.24608  1.0000
  S   S4        1.0  0.04081  0.38059  0.17197  1.0000
  H   H38       1.0  0.47914  0.24698  0.19487  1.0000
  H   H39       1.0  0.17327  0.44299  0.12014  1.0000
  H   H40       1.0  0.03734  0.49260  0.20955  1.0000
  C   C15       1.0  0.07927  0.44344  0.17945  1.0000
  S   S5        1.0  0.49051  0.09440  0.28278  1.0000
  H   H41       1.0  0.02292  0.49571  0.22990  1.0000
  Fe  Fe3       1.0  0.46552  0.03962  0.27650  1.0000
  C   C16       1.0  0.46490  0.34647  0.17919  1.0000
  C   C17       1.0  0.39567  0.36931  0.21414  1.0000
  C   C18       1.0  0.14886  0.45730  0.11925  1.0000
  C   C19       1.0  0.37679  0.08320  0.22256  1.0000
  S   S6        1.0  0.28662  0.43591  0.23410  1.0000
  H   H42       1.0  0.45767  0.40072  0.30201  1.0000
  H   H43       1.0  0.47129  0.05861  0.19260  1.0000
  H   H44       1.0  0.09737  0.42483  0.18350  1.0000
  C   C20       1.0  0.45474  0.09660  0.16341  1.0000
  H   H45       1.0  0.15899  0.47947  0.26532  1.0000
  H   H46       1.0  0.11031  0.40172  0.23338  1.0000
  H   H47       1.0  0.99973  0.22519  0.11922  1.0000
  H   H48       1.0  0.47430  0.20273  0.17757  1.0000
  H   H49       1.0  0.08367  0.36590  0.25970  1.0000
  H   H50       1.0  0.45178  0.40971  0.27449  1.0000
  H   H51       1.0  0.05387  0.37964  0.29272  1.0000
  H   H52       1.0  0.37169  0.07944  0.23561  1.0000
  S   S7        1.0  0.46420  0.00943  0.22414  1.0000
  C   C21       1.0  0.18888  0.46688  0.14696  1.0000
  H   H53       1.0  0.01498  0.44947  0.22500  1.0000
  H   H54       1.0  0.19420  0.43915  0.19911  1.0000
  H   H55       1.0  0.44196  0.43444  0.17816  1.0000
  C   C22       1.0  0.03498  0.47811  0.22209  1.0000
  C   C23       1.0  0.27831  0.46201  0.21673  1.0000
  H   H56       1.0  0.18542  0.46514  0.22288  1.0000
  C   C24       1.0  0.14652  0.46359  0.10164  1.0000
  H   H57       1.0  0.14820  0.40849  0.24314  1.0000
  H   H58       1.0  0.12456  0.42056  0.26742  1.0000
  H   H59       1.0  0.49221  0.14644  0.20487  1.0000
  H   H60       1.0  0.34308  0.37897  0.22772  1.0000
  H   H61       1.0  0.47154  0.13556  0.23689  1.0000
  H   H62       1.0  0.18490  0.46630  0.24847  1.0000
  C   C25       1.0  0.08858  0.48291  0.17899  1.0000
  C   C26       1.0  0.07169  0.45057  0.24139  1.0000
  H   H63       1.0  0.36787  0.05436  0.22021  1.0000
  C   C27       1.0  0.17408  0.42142  0.21034  1.0000
  C   C28       1.0  0.09823  0.42482  0.26331  1.0000
  H   H64       1.0  0.09485  0.35889  0.28695  1.0000
  S   S8        1.0  0.39881  0.47028  0.21832  1.0000
  H   H65       1.0  0.41201  0.33382  0.17090  1.0000
  C   C29       1.0  0.07162  0.38385  0.26733  1.0000
  C   C30       1.0  0.26931  0.49104  0.28891  1.0000
  H   H66       1.0  0.10342  0.41070  0.10477  1.0000
  H   H67       1.0  0.35200  0.39807  0.20667  1.0000
  H   H68       1.0  0.15288  0.40566  0.09993  1.0000
  C   C31       1.0  0.13089  0.42444  0.23622  1.0000
  C   C32       1.0  0.46055  0.34355  0.15118  1.0000
  H   H69       1.0  0.35880  0.10257  0.21802  1.0000
  C   C33       1.0  0.46407  0.33680  0.20749  1.0000
  C   C34       1.0  0.02339  0.45210  0.16935  1.0000
  C   C35       1.0  0.03832  0.44158  0.31377  1.0000
  H   H70       1.0  0.26387  0.43643  0.28204  1.0000
  C   C36       1.0  0.13223  0.48650  0.24502  1.0000
  H   H71       1.0  0.23803  0.48432  0.29445  1.0000
  H   H72       1.0  0.12289  0.43537  0.12679  1.0000
  H   H73       1.0  0.04698  0.33414  0.28725  1.0000
  H   H74       1.0  0.07581  0.46804  0.12148  1.0000
  H   H75       1.0  0.05755  0.42092  0.31404  1.0000
  H   H76       1.0  0.46118  0.31450  0.18266  1.0000
  H   H77       1.0  0.48488  0.42726  0.16570  1.0000
  C   C37       1.0  0.44125  0.35307  0.16645  1.0000
  H   H78       1.0  0.41495  0.07867  0.19420  1.0000
  C   C38       1.0  0.42785  0.10660  0.19652  1.0000
  C   C39       1.0  0.48952  0.08703  0.19225  1.0000
  C   C40       1.0  0.47261  0.43338  0.17720  1.0000
  H   H79       1.0  0.46129  0.35005  0.21787  1.0000
  H   H80       1.0  0.42749  0.12797  0.21818  1.0000
  H   H81       1.0  0.48945  0.36312  0.14595  1.0000
  H   H82       1.0  0.48896  0.27234  0.22167  1.0000
  C   C41       1.0  0.47775  0.40267  0.19103  1.0000
  C   C42       1.0  0.15983  0.44794  0.22046  1.0000
  H   H83       1.0  0.43573  0.08001  0.21998  1.0000
  H   H84       1.0  0.18973  0.40219  0.21669  1.0000
  N   N4        1.0  0.47800  0.46439  0.31718  1.0000
  H   H85       1.0  0.44268  0.34735  0.14240  1.0000
  H   H86       1.0  0.45360  0.08335  0.14065  1.0000
  C   C43       1.0  0.44486  0.43136  0.28124  1.0000
  H   H87       1.0  0.05438  0.46386  0.24977  1.0000
  C   C44       1.0  0.45732  0.46039  0.30409  1.0000
  C   C45       1.0  0.13310  0.42513  0.09762  1.0000
  H   H88       1.0  0.49026  0.49507  0.16676  1.0000
  H   H89       1.0  0.26002  0.47617  0.26699  1.0000
  H   H90       1.0  0.17648  0.47505  0.17107  1.0000
  H   H91       1.0  0.21516  0.49052  0.14271  1.0000
  H   H92       1.0  0.12745  0.45745  0.14919  1.0000
  H   H93       1.0  0.01098  0.42752  0.31146  1.0000
  H   H94       1.0  0.27989  0.45733  0.17862  1.0000
  C   C46       1.0  0.18341  0.45247  0.16485  1.0000
  H   H95       1.0  0.19432  0.44278  0.14152  1.0000
  C   C47       1.0  0.27523  0.46768  0.27641  1.0000
  C   C48       1.0  0.07472  0.47354  0.22435  1.0000
  C   C49       1.0  0.16812  0.48715  0.25215  1.0000
  H   H96       1.0  0.28498  0.48097  0.29793  1.0000
  H   H97       1.0  0.48282  0.48214  0.18799  1.0000
  H   H98       1.0  0.49341  0.48506  0.21894  1.0000
  H   H99       1.0  0.47379  0.00659  0.16455  1.0000
  C   C50       1.0  0.49419  0.47378  0.17687  1.0000
  S   S9        1.0  0.00138  0.36074  0.10225  1.0000
  H   H100      1.0  0.00478  0.27626  0.11755  1.0000
  H   H101      1.0  0.17539  0.47766  0.09369  1.0000
  H   H102      1.0  0.49031  0.09583  0.23137  1.0000
  H   H103      1.0  0.49341  0.08451  0.20452  1.0000
  H   H104      1.0  0.99846  0.44048  0.16541  1.0000
  C   C51       1.0  0.49169  0.11648  0.23907  1.0000
  C   C52       1.0  0.08042  0.48823  0.12917  1.0000
  H   H105      1.0  0.12624  0.48197  0.09882  1.0000
  C   C53       1.0  0.03226  0.49145  0.16923  1.0000
  Fe  Fe4       1.0  0.38605  0.49684  0.25879  1.0000
  C   C54       1.0  0.26699  0.49705  0.21642  1.0000
  N   N5        1.0  0.15392  0.49312  0.12555  1.0000
  H   H106      1.0  0.11403  0.49455  0.18251  1.0000
  H   H107      1.0  0.02094  0.49389  0.13306  1.0000
  H   H108      1.0  0.00774  0.15180  0.31852  1.0000
  C   C55       1.0  0.45816  0.22693  0.37067  1.0000
  C   C56       1.0  0.46183  0.35539  0.33808  1.0000
  H   H109      1.0  0.11474  0.11220  0.60205  1.0000
  H   H110      1.0  0.29144  0.03106  0.61590  1.0000
  H   H111      1.0  0.01616  0.08090  0.61085  1.0000
  H   H112      1.0  0.47366  0.34753  0.32690  1.0000
  H   H113      1.0  0.11927  0.02866  0.61720  1.0000
  H   H114      1.0  0.46448  0.47607  0.34053  1.0000
  C   C57       1.0  0.27082  0.01928  0.62723  1.0000
  H   H115      1.0  0.42795  0.39262  0.32812  1.0000
  H   H116      1.0  0.06523  0.14271  0.62242  1.0000
  H   H117      1.0  0.17025  0.03740  0.59314  1.0000
  H   H118      1.0  0.02851  0.10463  0.63555  1.0000
  H   H119      1.0  0.43974  0.40099  0.34609  1.0000
  N   N6        1.0  0.08033  0.08663  0.62589  1.0000
  C   C58       1.0  0.06147  0.04780  0.63707  1.0000
  H   H120      1.0  0.02674  0.46431  0.35780  1.0000
  C   C59       1.0  0.45223  0.47688  0.32990  1.0000
  C   C60       1.0  0.09553  0.11575  0.64909  1.0000
  H   H121      1.0  0.07968  0.07020  0.60364  1.0000
  C   C61       1.0  0.11059  0.10659  0.63290  1.0000
  H   H122      1.0  0.05166  0.12292  0.59892  1.0000
  H   H123      1.0  0.12476  0.03981  0.58820  1.0000
  H   H124      1.0  0.22465  0.04066  0.61909  1.0000
  C   C62       1.0  0.10054  0.08294  0.60982  1.0000
  C   C63       1.0  0.05125  0.11167  0.62429  1.0000
  H   H125      1.0  0.00020  0.39660  0.37281  1.0000
  H   H126      1.0  0.48342  0.35584  0.34538  1.0000
  H   H127      1.0  0.07138  0.13067  0.64901  1.0000
  H   H128      1.0  0.12738  0.13409  0.62435  1.0000
  H   H129      1.0  0.47899  0.01132  0.33514  1.0000
  H   H130      1.0  0.01649  0.42544  0.33895  1.0000
  C   C64       1.0  0.03060  0.11064  0.61056  1.0000
  H   H131      1.0  0.15623  0.07174  0.61387  1.0000
  H   H132      1.0  0.35850  0.08534  0.64097  1.0000
  H   H133      1.0  0.13180  0.08865  0.63503  1.0000
  C   C65       1.0  0.13154  0.05832  0.60967  1.0000
  H   H134      1.0  0.36408  0.13016  0.64709  1.0000
  H   H135      1.0  0.43569  0.33294  0.34484  1.0000
  C   C66       1.0  0.45132  0.39470  0.33452  1.0000
  H   H136      1.0  0.00961  0.28452  0.58980  1.0000
  H   H137      1.0  0.13672  0.17033  0.64510  1.0000
  H   H138      1.0  0.05814  0.46425  0.33199  1.0000
  H   H139      1.0  0.04206  0.01805  0.61954  1.0000
  H   H140      1.0  0.42354  0.45647  0.33415  1.0000
  H   H141      1.0  0.99869  0.49005  0.36839  1.0000
  H   H142      1.0  0.04624  0.05149  0.64863  1.0000
  H   H143      1.0  0.45283  0.23893  0.35894  1.0000
  H   H144      1.0  0.08361  0.03177  0.64002  1.0000
  C   C67       1.0  0.00025  0.13507  0.61134  1.0000
  H   H145      1.0  0.43818  0.19834  0.37618  1.0000
  H   H146      1.0  0.00473  0.03298  0.63213  1.0000
  C   C68       1.0  0.48690  0.42710  0.32489  1.0000
  C   C69       1.0  0.99918  0.47386  0.35892  1.0000
  H   H147      1.0  0.45208  0.24682  0.37842  1.0000
  C   C70       1.0  0.20659  0.01003  0.64371  1.0000
  C   C71       1.0  0.23309  0.02466  0.62902  1.0000
  H   H148      1.0  0.01382  0.16579  0.61011  1.0000
  H   H149      1.0  0.49302  0.16566  0.36597  1.0000
  H   H150      1.0  0.00065  0.39605  0.62279  1.0000
  H   H151      1.0  0.16132  0.08361  0.58483  1.0000
  C   C72       1.0  0.03109  0.02126  0.63167  1.0000
  C   C73       1.0  0.00311  0.48129  0.32972  1.0000
  C   C74       1.0  0.14784  0.05468  0.59289  1.0000
  S   S10       1.0  0.16014  0.01879  0.64586  1.0000
  C   C75       1.0  0.03017  0.45251  0.32968  1.0000
  N   N7        1.0  0.99765  0.49997  0.34358  1.0000
  H   H152      1.0  0.49595  0.19973  0.34832  1.0000
  C   C76       1.0  0.35785  0.09825  0.65137  1.0000
  H   H153      1.0  0.00135  0.14188  0.67115  1.0000
  H   H154      1.0  0.23471  0.06199  0.83825  1.0000
  S   S11       1.0  0.06046  0.01037  0.80156  1.0000
  C   C77       1.0  0.24125  0.02044  0.68978  1.0000
  H   H155      1.0  0.27299  0.06750  0.76245  1.0000
  Fe  Fe5       1.0  0.43721  0.02022  0.80639  1.0000
  H   H156      1.0  0.04814  0.40385  0.75115  1.0000
  H   H157      1.0  0.12871  0.12708  0.73071  1.0000
  C   C78       1.0  0.37917  0.02481  0.74391  1.0000
  S   S12       1.0  0.38812  0.04581  0.80088  1.0000
  H   H158      1.0  0.41982  0.07095  0.84170  1.0000
  H   H159      1.0  0.22256  0.13855  0.65640  1.0000
  C   C79       1.0  0.27645  0.06121  0.85315  1.0000
  H   H160      1.0  0.21933  0.09416  0.69139  1.0000
  H   H161      1.0  0.08771  0.49222  0.70181  1.0000
  C   C80       1.0  0.34683  0.12928  0.79761  1.0000
  H   H162      1.0  0.08875  0.48696  0.82079  1.0000
  H   H163      1.0  0.47905  0.07563  0.70928  1.0000
  C   C81       1.0  0.26579  0.02055  0.81050  1.0000
  C   C82       1.0  0.08914  0.47766  0.67941  1.0000
  C   C83       1.0  0.10526  0.08283  0.76218  1.0000
  H   H164      1.0  0.08697  0.06505  0.73131  1.0000
  N   N8        1.0  0.04914  0.08594  0.74830  1.0000
  C   C84       1.0  0.03112  0.12738  0.79644  1.0000
  C   C85       1.0  0.31690  0.09858  0.67807  1.0000
  H   H165      1.0  0.12345  0.07890  0.75128  1.0000
  H   H166      1.0  0.07665  0.34776  0.82815  1.0000
  H   H167      1.0  0.45769  0.06444  0.72990  1.0000
  H   H168      1.0  0.19452  0.14520  0.67458  1.0000
  S   S13       1.0  0.39592  0.05401  0.75586  1.0000
  H   H169      1.0  0.31763  0.19353  0.86138  1.0000
  H   H170      1.0  0.22868  0.18558  0.66059  1.0000
  H   H171      1.0  0.14662  0.15550  0.70193  1.0000
  Fe  Fe6       1.0  0.39524  0.01939  0.77994  1.0000
  H   H172      1.0  0.23085  0.09435  0.85110  1.0000
  C   C86       1.0  0.07262  0.08977  0.73170  1.0000
  C   C87       1.0  0.24603  0.00691  0.76644  1.0000
  C   C88       1.0  0.23647  0.06570  0.85025  1.0000
  C   C89       1.0  0.47399  0.13314  0.76531  1.0000
  H   H173      1.0  0.28329  0.14281  0.84070  1.0000
  C   C90       1.0  0.35355  0.01887  0.72095  1.0000
  C   C91       1.0  0.12411  0.12842  0.70706  1.0000
  H   H174      1.0  0.44645  0.13217  0.70996  1.0000
  H   H175      1.0  0.05557  0.36754  0.81233  1.0000
  C   C92       1.0  0.30445  0.13193  0.84696  1.0000
  H   H176      1.0  0.28038  0.03355  0.85020  1.0000
  N   N9        1.0  0.00649  0.47262  0.71651  1.0000
  H   H177      1.0  0.32881  0.13032  0.67437  1.0000
  H   H178      1.0  0.48923  0.11046  0.76259  1.0000
  C   C93       1.0  0.01494  0.10439  0.74799  1.0000
  C   C94       1.0  0.06909  0.49163  0.69334  1.0000
  H   H179      1.0  0.07194  0.47787  0.67033  1.0000
  H   H180      1.0  0.15261  0.12806  0.65371  1.0000
  H   H181      1.0  0.05349  0.10198  0.77014  1.0000
  H   H182      1.0  0.04348  0.16500  0.74595  1.0000
  H   H183      1.0  0.25373  0.02526  0.67700  1.0000
  H   H184      1.0  0.14544  0.13452  0.76282  1.0000
  Fe  Fe7       1.0  0.13004  0.01502  0.70465  1.0000
  H   H185      1.0  0.03375  0.37745  0.84601  1.0000
  C   C95       1.0  0.48493  0.05716  0.67282  1.0000
  H   H186      1.0  0.25502  0.16310  0.68330  1.0000
  H   H187      1.0  0.02522  0.32718  0.86700  1.0000
  H   H188      1.0  0.23354  0.01181  0.75594  1.0000
  H   H189      1.0  0.45809  0.12417  0.77799  1.0000
  H   H190      1.0  0.36030  0.04704  0.83304  1.0000
  C   C96       1.0  0.35002  0.12390  0.81484  1.0000
  H   H191      1.0  0.34715  0.03207  0.71001  1.0000
  S   S14       1.0  0.13260  0.05915  0.68271  1.0000
  H   H192      1.0  0.00927  0.47241  0.86109  1.0000
  C   C97       1.0  0.03364  0.04344  0.75629  1.0000
  H   H193      1.0  0.24190  0.08645  0.67308  1.0000
  C   C98       1.0  0.20398  0.03516  0.86232  1.0000
  H   H194      1.0  0.37457  0.14647  0.78952  1.0000
  Fe  Fe8       1.0  0.10178  0.00249  0.81704  1.0000
  C   C99       1.0  0.01997  0.09123  0.80729  1.0000
  H   H195      1.0  0.27509  0.05620  0.86607  1.0000
  H   H196      1.0  0.02160  0.03934  0.76928  1.0000
  C   C100      1.0  0.28161  0.03938  0.76347  1.0000
  H   H197      1.0  0.31253  0.06695  0.82391  1.0000
  H   H198      1.0  0.42459  0.05705  0.67903  1.0000
  H   H199      1.0  0.22477  0.00909  0.77693  1.0000
  H   H200      1.0  0.24234  0.05806  0.79468  1.0000
  C   C101      1.0  0.24730  0.10202  0.68229  1.0000
  H   H201      1.0  0.29410  0.14201  0.69730  1.0000
  H   H202      1.0  0.08547  0.08863  0.65857  1.0000
  H   H203      1.0  0.06061  0.14364  0.79361  1.0000
  C   C102      1.0  0.25483  0.14566  0.67434  1.0000
  H   H204      1.0  0.38079  0.09005  0.65712  1.0000
  H   H205      1.0  0.09285  0.05385  0.77019  1.0000
  H   H206      1.0  0.04169  0.44626  0.75830  1.0000
  H   H207      1.0  0.26785  0.18391  0.86001  1.0000
  H   H208      1.0  0.43717  0.12650  0.73118  1.0000
  H   H209      1.0  0.04083  0.07972  0.81289  1.0000
  S   S15       1.0  0.06546  0.00129  0.71281  1.0000
  H   H210      1.0  0.34008  0.10103  0.79455  1.0000
  H   H211      1.0  0.32377  0.14484  0.79564  1.0000
  H   H212      1.0  0.28084  0.11727  0.73366  1.0000
  C   C103      1.0  0.05279  0.34214  0.82218  1.0000
  H   H213      1.0  0.03517  0.15428  0.72760  1.0000
  C   C104      1.0  0.22312  0.15414  0.66599  1.0000
  S   S16       1.0  0.48810  0.04776  0.81461  1.0000
  H   H214      1.0  0.15341  0.08963  0.77325  1.0000
  H   H215      1.0  0.20228  0.03981  0.87443  1.0000
  H   H216      1.0  0.09329  0.44801  0.68354  1.0000
  H   H217      1.0  0.26258  0.11355  0.87029  1.0000
  Fe  Fe9       1.0  0.12868  0.00941  0.67121  1.0000
  H   H218      1.0  0.33868  0.10188  0.70652  1.0000
  S   S17       1.0  0.03376  0.08730  0.68953  1.0000
  C   C105      1.0  0.39705  0.04581  0.84916  1.0000
  H   H219      1.0  0.29623  0.03500  0.77337  1.0000
  C   C106      1.0  0.34620  0.08580  0.84859  1.0000
  C   C107      1.0  0.49480  0.12158  0.72017  1.0000
  H   H220      1.0  0.37114  0.11057  0.84267  1.0000
  H   H221      1.0  0.35456  0.15288  0.81734  1.0000
  H   H222      1.0  0.32182  0.15245  0.72020  1.0000
  H   H223      1.0  0.05538  0.31688  0.81705  1.0000
  H   H224      1.0  0.05733  0.02754  0.75536  1.0000
  C   C108      1.0  0.02804  0.46615  0.70111  1.0000
  H   H225      1.0  0.09531  0.15355  0.72457  1.0000
  C   C109      1.0  0.05645  0.45605  0.73250  1.0000
  Fe  Fe10      1.0  0.06819  0.04162  0.68990  1.0000
  H   H226      1.0  0.28814  0.10497  0.82275  1.0000
  C   C110      1.0  0.45932  0.11147  0.67900  1.0000
  C   C111      1.0  0.37225  0.04188  0.72941  1.0000
  H   H227      1.0  0.33840  0.08661  0.68376  1.0000
  H   H228      1.0  0.11370  0.10831  0.78187  1.0000
  H   H229      1.0  0.32917  0.11150  0.73357  1.0000
  C   C112      1.0  0.31009  0.12130  0.72597  1.0000
  C   C113      1.0  0.31354  0.09596  0.82636  1.0000
  C   C114      1.0  0.49630  0.09579  0.81649  1.0000
  H   H230      1.0  0.21196  0.02643  0.69122  1.0000
  C   C115      1.0  0.13097  0.10540  0.77051  1.0000
  C   C116      1.0  0.47936  0.15822  0.81433  1.0000
  C   C117      1.0  0.23592  0.03564  0.80550  1.0000
  H   H231      1.0  0.10235  0.12785  0.69983  1.0000
  C   C118      1.0  0.30870  0.09774  0.71350  1.0000
  H   H232      1.0  0.29802  0.06697  0.71998  1.0000
  N   N10       1.0  0.31013  0.09365  0.84378  1.0000
  S   S18       1.0  0.16099  0.04178  0.80818  1.0000
  H   H233      1.0  0.37599  0.11234  0.81589  1.0000
  H   H234      1.0  0.29514  0.03121  0.80350  1.0000
  C   C119      1.0  0.00849  0.36878  0.84111  1.0000
  H   H235      1.0  0.29187  0.03424  0.69893  1.0000
  C   C120      1.0  0.28226  0.11062  0.70260  1.0000
  H   H236      1.0  0.13804  0.10365  0.70653  1.0000
  C   C121      1.0  0.10545  0.12669  0.72428  1.0000
  H   H237      1.0  0.30222  0.04047  0.75224  1.0000
  H   H238      1.0  0.31212  0.12307  0.87146  1.0000
  H   H239      1.0  0.25329  0.10786  0.71046  1.0000
  C   C122      1.0  0.31820  0.08323  0.66290  1.0000
  C   C123      1.0  0.07262  0.10308  0.75851  1.0000
  H   H240      1.0  0.24847  0.04129  0.70999  1.0000
  C   C124      1.0  0.45922  0.13857  0.71980  1.0000
  H   H241      1.0  0.44538  0.10839  0.80963  1.0000
  H   H242      1.0  0.11786  0.49725  0.67379  1.0000
  C   C125      1.0  0.19774  0.02171  0.81443  1.0000
  H   H243      1.0  0.08559  0.13420  0.75329  1.0000
  H   H244      1.0  0.27942  0.17301  0.87904  1.0000
  N   N11       1.0  0.27827  0.08916  0.68981  1.0000
  H   H245      1.0  0.03024  0.43540  0.70272  1.0000
  C   C126      1.0  0.29151  0.13260  0.86466  1.0000
  C   C127      1.0  0.45343  0.07349  0.67713  1.0000
  H   H246      1.0  0.40517  0.01921  0.84652  1.0000
  H   H247      1.0  0.33172  0.15433  0.84192  1.0000
  H   H248      1.0  0.46020  0.17684  0.81145  1.0000
  C   C128      1.0  0.28899  0.17331  0.86630  1.0000
  H   H249      1.0  0.05332  0.08780  0.72341  1.0000
  C   C129      1.0  0.47097  0.11959  0.81324  1.0000
  C   C130      1.0  0.48526  0.07772  0.72091  1.0000
  H   H250      1.0  0.45274  0.13552  0.75791  1.0000
  C   C131      1.0  0.00234  0.08160  0.67711  1.0000
  H   H251      1.0  0.16121  0.02703  0.75530  1.0000
  H   H252      1.0  0.28270  0.15547  0.66533  1.0000
  C   C132      1.0  0.35801  0.04835  0.84552  1.0000
  H   H253      1.0  0.06804  0.48728  0.73087  1.0000
  H   H254      1.0  0.04522  0.21200  0.82755  1.0000
  C   C133      1.0  0.02332  0.14828  0.74059  1.0000
  S   S19       1.0  0.16490  0.02847  0.72199  1.0000
  H   H255      1.0  0.00949  0.02891  0.73671  1.0000
  C   C134      1.0  0.06728  0.49433  0.81402  1.0000
  H   H256      1.0  0.34297  0.08339  0.86150  1.0000
  H   H257      1.0  0.08942  0.44115  0.74989  1.0000
  H   H258      1.0  0.38007  0.07293  0.72505  1.0000
  H   H259      1.0  0.31313  0.05136  0.66597  1.0000
  H   H260      1.0  0.39580  0.04477  0.86186  1.0000
  H   H261      1.0  0.46751  0.17040  0.71795  1.0000
  H   H262      1.0  0.07516  0.44519  0.72370  1.0000
  C   C135      1.0  0.26619  0.04639  0.69765  1.0000
  H   H263      1.0  0.33665  0.02240  0.85321  1.0000
  C   C136      1.0  0.05897  0.43555  0.74898  1.0000
  H   H264      1.0  0.43489  0.12411  0.68212  1.0000
  C   C137      1.0  0.01377  0.33358  0.83404  1.0000
  H   H265      1.0  0.05409  0.46815  0.81060  1.0000
  H   H266      1.0  0.01167  0.47131  0.69175  1.0000
  H   H267      1.0  0.02613  0.24475  0.81469  1.0000
  H   H268      1.0  0.01102  0.39305  0.83080  1.0000
  H   H269      1.0  0.03200  0.19954  0.81020  1.0000
  H   H270      1.0  0.17604  0.03706  0.85923  1.0000
  C   C138      1.0  0.12745  0.14157  0.65362  1.0000
  H   H271      1.0  0.29674  0.09217  0.65647  1.0000
  C   C139      1.0  0.01459  0.44740  0.73060  1.0000
  H   H272      1.0  0.48525  0.19261  0.76540  1.0000
  H   H273      1.0  0.11656  0.14559  0.66567  1.0000
  C   C140      1.0  0.02423  0.21383  0.82000  1.0000
  H   H274      1.0  0.00810  0.41657  0.73012  1.0000
  H   H275      1.0  0.01254  0.30768  0.84336  1.0000
  C   C141      1.0  0.00167  0.02183  0.74986  1.0000
  S   S20       1.0  0.01756  0.18862  0.77654  1.0000
  H   H276      1.0  0.46299  0.01565  0.70890  1.0000
  C   C142      1.0  0.48627  0.00182  0.71205  1.0000
  S   S21       1.0  0.47903  0.01005  0.67004  1.0000
  H   H277      1.0  0.00146  0.08486  0.84756  1.0000
  H   H278      1.0  0.20864  0.00572  0.86228  1.0000
  H   H279      1.0  0.01106  0.28517  0.89402  1.0000
  C   C143      1.0  0.00396  0.14279  0.78951  1.0000
  H   H280      1.0  0.00160  0.15145  0.84469  1.0000
  H   H281      1.0  0.00053  0.34804  0.88174  1.0000
  S   S22       1.0  0.36645  0.00348  0.67564  1.0000
  H   H282      1.0  0.47270  0.00399  0.73675  1.0000
  H   H283      1.0  0.00072  0.03274  0.87004  1.0000
  H   H284      1.0  0.00089  0.39034  0.80421  1.0000
  H   H285      1.0  0.99832  0.35382  0.78361  1.0000
  H   H286      1.0  0.99937  0.40206  0.86536  1.0000
  C   C144      1.0  0.49671  0.13287  0.67703  1.0000
  H   H287      1.0  0.99941  0.44349  0.83857  1.0000
  C   C145      1.0  0.14030  0.00276  0.75446  1.0000
  H   H288      1.0  0.28790  0.84631  0.21333  1.0000
  S   S23       1.0  0.38098  0.50773  0.28299  1.0000
  H   H289      1.0  0.11150  0.67820  0.26614  1.0000
  Fe  Fe11      1.0  0.17331  0.60178  0.20161  1.0000
  S   S24       1.0  0.14678  0.63479  0.18417  1.0000
  Fe  Fe12      1.0  0.21655  0.56807  0.17709  1.0000
  S   S25       1.0  0.19259  0.59738  0.15774  1.0000
  S   S26       1.0  0.25453  0.52775  0.17155  1.0000
  Fe  Fe13      1.0  0.20561  0.64869  0.16795  1.0000
  S   S27       1.0  0.23143  0.70695  0.15137  1.0000
  Fe  Fe14      1.0  0.13635  0.58013  0.17596  1.0000
  H   H290      1.0  0.03498  0.66315  0.21035  1.0000
  S   S28       1.0  0.23355  0.62054  0.18617  1.0000
  S   S29       1.0  0.15930  0.54634  0.19448  1.0000
  H   H291      1.0  0.22813  0.57667  0.30604  1.0000
  C   C146      1.0  0.19164  0.52004  0.11628  1.0000
  C   C147      1.0  0.28548  0.53469  0.28142  1.0000
  H   H292      1.0  0.00661  0.59892  0.22237  1.0000
  C   C148      1.0  0.46643  0.69224  0.19770  1.0000
  H   H293      1.0  0.44422  0.92616  0.18824  1.0000
  H   H294      1.0  0.36312  0.63858  0.13503  1.0000
  S   S30       1.0  0.48154  0.79541  0.16997  1.0000
  Fe  Fe15      1.0  0.41475  0.52833  0.22329  1.0000
  S   S31       1.0  0.44659  0.57725  0.20247  1.0000
  S   S32       1.0  0.17965  0.72741  0.28362  1.0000
  S   S33       1.0  0.35808  0.52332  0.24016  1.0000
  S   S34       1.0  0.24789  0.71236  0.30310  1.0000
  H   H295      1.0  0.44870  0.90560  0.30650  1.0000
  H   H296      1.0  0.08121  0.56912  0.21653  1.0000
  C   C149      1.0  0.02968  0.58709  0.22682  1.0000
  C   C150      1.0  0.23760  0.87174  0.31297  1.0000
  C   C151      1.0  0.42747  0.62566  0.22133  1.0000
  C   C152      1.0  0.44669  0.62246  0.20652  1.0000
  S   S35       1.0  0.44472  0.98455  0.29527  1.0000
  H   H297      1.0  0.41223  0.60009  0.23046  1.0000
  H   H298      1.0  0.12737  0.72470  0.25240  1.0000
  H   H299      1.0  0.37294  0.82883  0.25273  1.0000
  H   H300      1.0  0.47109  0.80627  0.26872  1.0000
  H   H301      1.0  0.46291  0.65837  0.15875  1.0000
  H   H302      1.0  0.24244  0.83192  0.20970  1.0000
  H   H303      1.0  0.15403  0.55654  0.30351  1.0000
  C   C153      1.0  0.28869  0.81254  0.19601  1.0000
  Fe  Fe16      1.0  0.49234  0.85812  0.17030  1.0000
  H   H304      1.0  0.43754  0.52224  0.31317  1.0000
  H   H305      1.0  0.25174  0.73949  0.21534  1.0000
  C   C154      1.0  0.20747  0.55583  0.28716  1.0000
  H   H306      1.0  0.08200  0.71315  0.26692  1.0000
  H   H307      1.0  0.24995  0.54404  0.20244  1.0000
  H   H308      1.0  0.01609  0.55830  0.23500  1.0000
  H   H309      1.0  0.37716  0.77427  0.31680  1.0000
  C   C155      1.0  0.43167  0.93407  0.19892  1.0000
  C   C156      1.0  0.44012  0.63151  0.27974  1.0000
  C   C157      1.0  0.44100  0.61840  0.26588  1.0000
  C   C158      1.0  0.42239  0.58042  0.26676  1.0000
  C   C159      1.0  0.40344  0.55551  0.28152  1.0000
  C   C160      1.0  0.40159  0.56908  0.29524  1.0000
  C   C161      1.0  0.41892  0.60726  0.29430  1.0000
  Fe  Fe17      1.0  0.39728  0.97141  0.28295  1.0000
  H   H310      1.0  0.42284  0.57045  0.25606  1.0000
  H   H311      1.0  0.38604  0.55034  0.30663  1.0000
  H   H312      1.0  0.41528  0.61797  0.30486  1.0000
  H   H313      1.0  0.32348  0.62810  0.19502  1.0000
  C   C162      1.0  0.19758  0.75668  0.21788  1.0000
  H   H314      1.0  0.35554  0.65869  0.21247  1.0000
  C   C163      1.0  0.34120  0.67611  0.20464  1.0000
  H   H315      1.0  0.20338  0.53784  0.23411  1.0000
  H   H316      1.0  0.41650  0.65601  0.14167  1.0000
  H   H317      1.0  0.41327  0.66473  0.23585  1.0000
  H   H318      1.0  0.14944  0.50512  0.14887  1.0000
  H   H319      1.0  0.33640  0.88398  0.28386  1.0000
  C   C164      1.0  0.31311  0.74995  0.22504  1.0000
  H   H320      1.0  0.34975  0.61485  0.28437  1.0000
  H   H321      1.0  0.22276  0.52681  0.30779  1.0000
  H   H322      1.0  0.24250  0.86704  0.26302  1.0000
  C   C165      1.0  0.34531  0.65856  0.26532  1.0000
  S   S36       1.0  0.18254  0.63867  0.30111  1.0000
  H   H323      1.0  0.18114  0.57559  0.12056  1.0000
  H   H324      1.0  0.27363  0.78551  0.19384  1.0000
  C   C166      1.0  0.26405  0.50298  0.18893  1.0000
  C   C167      1.0  0.02274  0.56225  0.29041  1.0000
  H   H325      1.0  0.24823  0.60864  0.11645  1.0000
  C   C168      1.0  0.30888  0.88042  0.29201  1.0000
  H   H326      1.0  0.36480  0.76212  0.12210  1.0000
  H   H327      1.0  0.05367  0.53394  0.13588  1.0000
  H   H328      1.0  0.34858  0.91208  0.22775  1.0000
  H   H329      1.0  0.34497  0.59907  0.26670  1.0000
  H   H330      1.0  0.34156  0.76083  0.28890  1.0000
  H   H331      1.0  0.07212  0.71055  0.24042  1.0000
  H   H332      1.0  0.27629  0.54263  0.27017  1.0000
  C   C169      1.0  0.23342  0.80012  0.23955  1.0000
  H   H333      1.0  0.06501  0.69450  0.21835  1.0000
  S   S37       1.0  0.33696  0.95160  0.29828  1.0000
  H   H334      1.0  0.32619  0.55124  0.30039  1.0000
  C   C170      1.0  0.38884  0.60776  0.16986  1.0000
  H   H335      1.0  0.16175  0.50875  0.30314  1.0000
  H   H336      1.0  0.26475  0.56550  0.11424  1.0000
  N   N12       1.0  0.27634  0.56158  0.29193  1.0000
  H   H337      1.0  0.34889  0.51698  0.19569  1.0000
  H   H338      1.0  0.11406  0.56488  0.27121  1.0000
  Fe  Fe18      1.0  0.46634  0.67961  0.30433  1.0000
  S   S38       1.0  0.20360  0.80423  0.30829  1.0000
  H   H339      1.0  0.27613  0.60603  0.27152  1.0000
  C   C171      1.0  0.09849  0.60205  0.28642  1.0000
  H   H340      1.0  0.19965  0.71252  0.20434  1.0000
  H   H341      1.0  0.00139  0.57868  0.26256  1.0000
  C   C172      1.0  0.05776  0.58149  0.21267  1.0000
  H   H342      1.0  0.09326  0.50285  0.22164  1.0000
  H   H343      1.0  0.18014  0.54767  0.25250  1.0000
  C   C173      1.0  0.46267  0.88168  0.30814  1.0000
  H   H344      1.0  0.21572  0.50475  0.11615  1.0000
  H   H345      1.0  0.48574  0.53049  0.26730  1.0000
  C   C174      1.0  0.12180  0.51389  0.12381  1.0000
  C   C175      1.0  0.43702  0.97304  0.21799  1.0000
  H   H346      1.0  0.05309  0.52852  0.11604  1.0000
  C   C176      1.0  0.00887  0.66277  0.23505  1.0000
  Fe  Fe19      1.0  0.14025  0.67666  0.30198  1.0000
  C   C177      1.0  0.24197  0.58159  0.11242  1.0000
  H   H347      1.0  0.28122  0.83180  0.24760  1.0000
  S   S39       1.0  0.40747  0.77998  0.14431  1.0000
  Fe  Fe20      1.0  0.47829  0.95928  0.27765  1.0000
  H   H348      1.0  0.22537  0.72932  0.23519  1.0000
  H   H349      1.0  0.48803  0.81970  0.22921  1.0000
  H   H350      1.0  0.20723  0.80767  0.23624  1.0000
  H   H351      1.0  0.17569  0.76288  0.22710  1.0000
  H   H352      1.0  0.36179  0.52614  0.17436  1.0000
  H   H353      1.0  0.46755  0.90155  0.23793  1.0000
  H   H354      1.0  0.14785  0.53601  0.28697  1.0000
  C   C178      1.0  0.05030  0.51278  0.12847  1.0000
  H   H355      1.0  0.34237  0.59287  0.14934  1.0000
  H   H356      1.0  0.44900  0.69998  0.16439  1.0000
  S   S40       1.0  0.07736  0.65411  0.30312  1.0000
  H   H357      1.0  0.17054  0.69551  0.22444  1.0000
  H   H358      1.0  0.06366  0.59511  0.24384  1.0000
  H   H359      1.0  0.36217  0.80953  0.30345  1.0000
  H   H360      1.0  0.07025  0.60950  0.20388  1.0000
  C   C179      1.0  0.19483  0.52720  0.24723  1.0000
  H   H361      1.0  0.21498  0.53864  0.27849  1.0000
  H   H362      1.0  0.49541  0.59167  0.24472  1.0000
  H   H363      1.0  0.10287  0.67654  0.23874  1.0000
  C   C180      1.0  0.46659  0.65569  0.19479  1.0000
  N   N13       1.0  0.25791  0.78821  0.22627  1.0000
  S   S41       1.0  0.07850  0.55730  0.17146  1.0000
  H   H364      1.0  0.21004  0.58591  0.28050  1.0000
  H   H365      1.0  0.26391  0.50833  0.22690  1.0000
  C   C181      1.0  0.08150  0.68597  0.24701  1.0000
  H   H366      1.0  0.01385  0.50391  0.31838  1.0000
  S   S42       1.0  0.44398  0.50796  0.24231  1.0000
  H   H367      1.0  0.43712  0.81346  0.24981  1.0000
  H   H368      1.0  0.38701  0.96240  0.23733  1.0000
  H   H369      1.0  0.15312  0.72388  0.20950  1.0000
  C   C182      1.0  0.04630  0.65249  0.25565  1.0000
  C   C183      1.0  0.06832  0.61348  0.29534  1.0000
  Fe  Fe21      1.0  0.20085  0.74508  0.30384  1.0000
  C   C184      1.0  0.24334  0.84313  0.30488  1.0000
  H   H370      1.0  0.40248  0.69804  0.14605  1.0000
  H   H371      1.0  0.31712  0.53831  0.27738  1.0000
  H   H372      1.0  0.25901  0.86218  0.23531  1.0000
  H   H373      1.0  0.20422  0.78018  0.20697  1.0000
  Fe  Fe22      1.0  0.42661  0.80501  0.16348  1.0000
  H   H374      1.0  0.31981  0.75621  0.21198  1.0000
  H   H375      1.0  0.22138  0.52610  0.25158  1.0000
  H   H376      1.0  0.34436  0.74093  0.24367  1.0000
  H   H377      1.0  0.02049  0.73962  0.21753  1.0000
  H   H378      1.0  0.39743  0.84609  0.26666  1.0000
  H   H379      1.0  0.31852  0.81055  0.19639  1.0000
  S   S43       1.0  0.14961  0.59984  0.22704  1.0000
  C   C185      1.0  0.25920  0.51724  0.20258  1.0000
  H   H380      1.0  0.22287  0.77534  0.25022  1.0000
  C   C186      1.0  0.42800  0.66220  0.22437  1.0000
  C   C187      1.0  0.27918  0.84720  0.29439  1.0000
  C   C188      1.0  0.18163  0.62237  0.23649  1.0000
  H   H381      1.0  0.37183  0.77565  0.22556  1.0000
  S   S44       1.0  0.46270  0.84696  0.19590  1.0000
  H   H382      1.0  0.27341  0.72244  0.17508  1.0000
  C   C189      1.0  0.03033  0.59351  0.29734  1.0000
  S   S45       1.0  0.36779  0.87983  0.20076  1.0000
  C   C190      1.0  0.44716  0.69548  0.21250  1.0000
  C   C191      1.0  0.06558  0.50718  0.17354  1.0000
  H   H383      1.0  0.33396  0.67755  0.27261  1.0000
  H   H384      1.0  0.31221  0.67619  0.21147  1.0000
  S   S46       1.0  0.44777  0.74086  0.21644  1.0000
  C   C192      1.0  0.35897  0.57729  0.18354  1.0000
  C   C193      1.0  0.05019  0.61361  0.23588  1.0000
  C   C194      1.0  0.22156  0.62689  0.23149  1.0000
  H   H385      1.0  0.23355  0.61611  0.22152  1.0000
  H   H386      1.0  0.31624  0.80752  0.22864  1.0000
  S   S47       1.0  0.46694  0.67713  0.27913  1.0000
  C   C195      1.0  0.29341  0.73097  0.16355  1.0000
  C   C196      1.0  0.03472  0.68342  0.21822  1.0000
  H   H387      1.0  0.11388  0.50325  0.25120  1.0000
  H   H388      1.0  0.14200  0.50392  0.23257  1.0000
  C   C197      1.0  0.24586  0.64443  0.23982  1.0000
  H   H389      1.0  0.27660  0.64689  0.23645  1.0000
  H   H390      1.0  0.35602  0.72445  0.30226  1.0000
  C   C198      1.0  0.23025  0.65863  0.25264  1.0000
  H   H391      1.0  0.43329  0.84554  0.23220  1.0000
  Fe  Fe23      1.0  0.22331  0.69073  0.28436  1.0000
  C   C199      1.0  0.28029  0.72565  0.15011  1.0000
  H   H392      1.0  0.00191  0.68528  0.24136  1.0000
  C   C200      1.0  0.29811  0.55796  0.30489  1.0000
  C   C201      1.0  0.25339  0.83537  0.24481  1.0000
  H   H393      1.0  0.27741  0.60805  0.15143  1.0000
  C   C202      1.0  0.29113  0.84498  0.18164  1.0000
  H   H394      1.0  0.34218  0.75274  0.17230  1.0000
  H   H395      1.0  0.05640  0.63041  0.26345  1.0000
  H   H396      1.0  0.39156  0.76555  0.28950  1.0000
  C   C203      1.0  0.33414  0.61655  0.27480  1.0000
  H   H397      1.0  0.41613  0.61105  0.17387  1.0000
  H   H398      1.0  0.24262  0.58946  0.09958  1.0000
  C   C204      1.0  0.33230  0.74843  0.16196  1.0000
  N   N14       1.0  0.02436  0.63363  0.24534  1.0000
  C   C205      1.0  0.35576  0.77843  0.30960  1.0000
  H   H399      1.0  0.35823  0.70631  0.20067  1.0000
  H   H400      1.0  0.46695  0.87768  0.25747  1.0000
  C   C206      1.0  0.23369  0.55498  0.29904  1.0000
  C   C207      1.0  0.47078  0.87381  0.24513  1.0000
  H   H401      1.0  0.36037  0.58485  0.19500  1.0000
  C   C208      1.0  0.28978  0.60246  0.28176  1.0000
  C   C209      1.0  0.41112  0.67126  0.15131  1.0000
  S   S48       1.0  0.26008  0.68334  0.26234  1.0000
  S   S49       1.0  0.42920  0.94056  0.26701  1.0000
  H   H402      1.0  0.30048  0.60783  0.13154  1.0000
  H   H403      1.0  0.22318  0.81589  0.26985  1.0000
  N   N15       1.0  0.37911  0.64653  0.16513  1.0000
  H   H404      1.0  0.32923  0.57505  0.18198  1.0000
  H   H405      1.0  0.29381  0.72090  0.22964  1.0000
  C   C210      1.0  0.30612  0.73726  0.13520  1.0000
  C   C211      1.0  0.45094  0.68382  0.15498  1.0000
  H   H406      1.0  0.39420  0.87949  0.24908  1.0000
  H   H407      1.0  0.28706  0.76943  0.24468  1.0000
  C   C212      1.0  0.17921  0.71986  0.21380  1.0000
  C   C213      1.0  0.05306  0.55169  0.28108  1.0000
  Fe  Fe24      1.0  0.40958  0.85210  0.18739  1.0000
  H   H408      1.0  0.30620  0.87311  0.18300  1.0000
  C   C214      1.0  0.45297  0.96288  0.20413  1.0000
  Fe  Fe25      1.0  0.44776  0.78535  0.19500  1.0000
  H   H409      1.0  0.47001  0.73700  0.13624  1.0000
  C   C215      1.0  0.36142  0.75586  0.29679  1.0000
  C   C216      1.0  0.39946  0.95457  0.22660  1.0000
  C   C217      1.0  0.20242  0.55739  0.12199  1.0000
  H   H410      1.0  0.45606  0.63750  0.25453  1.0000
  C   C218      1.0  0.35025  0.74784  0.23051  1.0000
  C   C219      1.0  0.30248  0.90906  0.30021  1.0000
  C   C220      1.0  0.10172  0.70135  0.25884  1.0000
  H   H411      1.0  0.31731  0.67333  0.18458  1.0000
  C   C221      1.0  0.30176  0.62319  0.14113  1.0000
  H   H412      1.0  0.28037  0.62313  0.28870  1.0000
  H   H413      1.0  0.12767  0.61763  0.28458  1.0000
  C   C222      1.0  0.39775  0.84997  0.25387  1.0000
  H   H414      1.0  0.19973  0.84569  0.25765  1.0000
  C   C223      1.0  0.19051  0.65418  0.25747  1.0000
  H   H415      1.0  0.12233  0.53623  0.13084  1.0000
  H   H416      1.0  0.48217  0.65314  0.18346  1.0000
  H   H417      1.0  0.48490  0.70446  0.24068  1.0000
  H   H418      1.0  0.30762  0.83896  0.17078  1.0000
  H   H419      1.0  0.39809  0.53788  0.18509  1.0000
  H   H420      1.0  0.02738  0.66509  0.26368  1.0000
  H   H421      1.0  0.29604  0.73358  0.12478  1.0000
  H   H422      1.0  0.29514  0.77757  0.31265  1.0000
  S   S50       1.0  0.44018  0.86901  0.16156  1.0000
  H   H423      1.0  0.03792  0.73082  0.19837  1.0000
  C   C224      1.0  0.22801  0.84124  0.25971  1.0000
  H   H424      1.0  0.33418  0.66154  0.25443  1.0000
  C   C225      1.0  0.35818  0.75967  0.14698  1.0000
  C   C226      1.0  0.33723  0.65914  0.19046  1.0000
  H   H425      1.0  0.12601  0.53028  0.11133  1.0000
  C   C227      1.0  0.16626  0.63553  0.24957  1.0000
  H   H426      1.0  0.39474  0.59514  0.15942  1.0000
  H   H427      1.0  0.48202  0.97669  0.19754  1.0000
  H   H428      1.0  0.13548  0.63206  0.25332  1.0000
  H   H429      1.0  0.00681  0.60272  0.30401  1.0000
  H   H430      1.0  0.39825  0.65971  0.18551  1.0000
  S   S51       1.0  0.39200  0.78926  0.18853  1.0000
  C   C228      1.0  0.34500  0.75354  0.13369  1.0000
  C   C229      1.0  0.39400  0.91592  0.20737  1.0000
  C   C230      1.0  0.37770  0.92630  0.22115  1.0000
  H   H431      1.0  0.31688  0.62720  0.16937  1.0000
  H   H432      1.0  0.26184  0.84693  0.18011  1.0000
  H   H433      1.0  0.17842  0.66556  0.26719  1.0000
  H   H434      1.0  0.04244  0.56163  0.20675  1.0000
  H   H435      1.0  0.28371  0.82529  0.28799  1.0000
  C   C231      1.0  0.43533  0.84334  0.24469  1.0000
  C   C232      1.0  0.37688  0.66669  0.17857  1.0000
  H   H436      1.0  0.38496  0.69868  0.17379  1.0000
  H   H437      1.0  0.36265  0.72466  0.22643  1.0000
  C   C233      1.0  0.34210  0.64331  0.15963  1.0000
  H   H438      1.0  0.49268  0.78694  0.25278  1.0000
  H   H439      1.0  0.33649  0.67261  0.15596  1.0000
  H   H440      1.0  0.29858  0.65314  0.13683  1.0000
  C   C234      1.0  0.26836  0.82103  0.21163  1.0000
  C   C235      1.0  0.23435  0.75207  0.22388  1.0000
  H   H441      1.0  0.37721  0.66829  0.26172  1.0000
  C   C236      1.0  0.16526  0.53835  0.29580  1.0000
  C   C237      1.0  0.29370  0.78028  0.23151  1.0000
  C   C238      1.0  0.09079  0.57187  0.27900  1.0000
  H   H442      1.0  0.07523  0.63453  0.22738  1.0000
  C   C239      1.0  0.34009  0.62336  0.14579  1.0000
  C   C240      1.0  0.36763  0.53720  0.18468  1.0000
  C   C241      1.0  0.26689  0.90424  0.31073  1.0000
  C   C242      1.0  0.01959  0.71739  0.21053  1.0000
  H   H443      1.0  0.01418  0.51006  0.16513  1.0000
  C   C243      1.0  0.48002  0.71030  0.14028  1.0000
  H   H444      1.0  0.30518  0.58602  0.30820  1.0000
  S   S52       1.0  0.04481  0.51516  0.27103  1.0000
  H   H445      1.0  0.48422  0.69535  0.13050  1.0000
  H   H446      1.0  0.19113  0.52968  0.10361  1.0000
  H   H447      1.0  0.20341  0.55070  0.13463  1.0000
  H   H448      1.0  0.26173  0.92611  0.31710  1.0000
  H   H449      1.0  0.48742  0.93937  0.11209  1.0000
  H   H450      1.0  0.49675  0.96655  0.16438  1.0000
  H   H451      1.0  0.48184  0.71786  0.18861  1.0000
  Fe  Fe26      1.0  0.45060  0.99941  0.25050  1.0000
  H   H452      1.0  0.35324  0.71793  0.33602  1.0000
  N   N16       1.0  0.23696  0.86071  0.64604  1.0000
  C   C244      1.0  0.31604  0.84198  0.34527  1.0000
  H   H453      1.0  0.10943  0.66478  0.64332  1.0000
  S   S53       1.0  0.36709  0.59454  0.35194  1.0000
  C   C245      1.0  0.03639  0.71638  0.64695  1.0000
  C   C246      1.0  0.34976  0.89127  0.63327  1.0000
  H   H454      1.0  0.32562  0.54669  0.33154  1.0000
  H   H455      1.0  0.35578  0.88087  0.64501  1.0000
  H   H456      1.0  0.01616  0.77428  0.62660  1.0000
  C   C247      1.0  0.26487  0.77113  0.34255  1.0000
  S   S54       1.0  0.46954  0.62653  0.32150  1.0000
  H   H457      1.0  0.07560  0.51215  0.34642  1.0000
  H   H458      1.0  0.28292  0.90884  0.64523  1.0000
  C   C248      1.0  0.22900  0.81706  0.64954  1.0000
  H   H459      1.0  0.07900  0.52802  0.32536  1.0000
  H   H460      1.0  0.35224  0.92295  0.63086  1.0000
  C   C249      1.0  0.09672  0.57270  0.33660  1.0000
  S   S55       1.0  0.20570  0.62288  0.34196  1.0000
  H   H461      1.0  0.21007  0.86892  0.32101  1.0000
  H   H462      1.0  0.30982  0.83938  0.63504  1.0000
  H   H463      1.0  0.40629  0.55320  0.33243  1.0000
  H   H464      1.0  0.24526  0.74369  0.63023  1.0000
  C   C250      1.0  0.24222  0.72857  0.34734  1.0000
  C   C251      1.0  0.22218  0.93437  0.61000  1.0000
  Fe  Fe27      1.0  0.41982  0.63925  0.33752  1.0000
  H   H465      1.0  0.29230  0.50243  0.34280  1.0000
  H   H466      1.0  0.05466  0.74372  0.64781  1.0000
  H   H467      1.0  0.21274  0.93166  0.63474  1.0000
  H   H468      1.0  0.24636  0.71440  0.33736  1.0000
  C   C252      1.0  0.33928  0.88372  0.34048  1.0000
  H   H469      1.0  0.12727  0.57017  0.33398  1.0000
  C   C253      1.0  0.09466  0.68799  0.63932  1.0000
  C   C254      1.0  0.31387  0.76592  0.32009  1.0000
  H   H470      1.0  0.19175  0.92108  0.61063  1.0000
  H   H471      1.0  0.35787  0.77670  0.34517  1.0000
  C   C255      1.0  0.02741  0.53725  0.34029  1.0000
  H   H472      1.0  0.02152  0.55153  0.35029  1.0000
  H   H473      1.0  0.26231  0.93612  0.62472  1.0000
  H   H474      1.0  0.25107  0.71213  0.35746  1.0000
  H   H475      1.0  0.28521  0.84307  0.34868  1.0000
  H   H476      1.0  0.08875  0.68557  0.62768  1.0000
  C   C256      1.0  0.44479  0.51780  0.32486  1.0000
  H   H477      1.0  0.22595  0.96627  0.60699  1.0000
  H   H478      1.0  0.25100  0.78793  0.33420  1.0000
  C   C257      1.0  0.22676  0.87689  0.63072  1.0000
  C   C258      1.0  0.25119  0.61592  0.34406  1.0000
  H   H479      1.0  0.03725  0.71938  0.63414  1.0000
  C   C259      1.0  0.28941  0.58636  0.36049  1.0000
  C   C260      1.0  0.25371  0.59270  0.35827  1.0000
  H   H480      1.0  0.29110  0.56852  0.37157  1.0000
  H   H481      1.0  0.22796  0.57969  0.36766  1.0000
  H   H482      1.0  0.02551  0.55809  0.32959  1.0000
  H   H483      1.0  0.18322  0.69529  0.35574  1.0000
  H   H484      1.0  0.24160  0.92635  0.60044  1.0000
  H   H485      1.0  0.37460  0.71778  0.36125  1.0000
  H   H486      1.0  0.25650  0.54015  0.32796  1.0000
  H   H487      1.0  0.32529  0.69646  0.37234  1.0000
  H   H488      1.0  0.30545  0.88120  0.62087  1.0000
  C   C261      1.0  0.41168  0.52431  0.33686  1.0000
  C   C262      1.0  0.32294  0.60336  0.34854  1.0000
  H   H489      1.0  0.21161  0.79695  0.62974  1.0000
  S   S56       1.0  0.43995  0.77611  0.33732  1.0000
  H   H490      1.0  0.41834  0.84778  0.32851  1.0000
  C   C263      1.0  0.33212  0.71775  0.34691  1.0000
  H   H491      1.0  0.19615  0.86363  0.63138  1.0000
  Fe  Fe28      1.0  0.45580  0.72407  0.33006  1.0000
  H   H492      1.0  0.31342  0.75950  0.35943  1.0000
  H   H493      1.0  0.32432  0.82659  0.35577  1.0000
  H   H494      1.0  0.35474  0.82910  0.32637  1.0000
  H   H495      1.0  0.30485  0.69841  0.34708  1.0000
  H   H496      1.0  0.18833  0.74288  0.34347  1.0000
  H   H497      1.0  0.09014  0.58053  0.34818  1.0000
  C   C264      1.0  0.07024  0.53447  0.33711  1.0000
  H   H498      1.0  0.37068  0.88486  0.33732  1.0000
  H   H499      1.0  0.26358  0.50032  0.31934  1.0000
  C   C265      1.0  0.05713  0.68340  0.65162  1.0000
  H   H500      1.0  0.33312  0.89759  0.35051  1.0000
  C   C266      1.0  0.30968  0.87054  0.63288  1.0000
  S   S57       1.0  0.41439  0.68974  0.31972  1.0000
  H   H501      1.0  0.19282  0.73701  0.36374  1.0000
  C   C267      1.0  0.32795  0.75960  0.34711  1.0000
  H   H502      1.0  0.35131  0.67074  0.36013  1.0000
  C   C268      1.0  0.44541  0.84899  0.32055  1.0000
  H   H503      1.0  0.34576  0.63752  0.32453  1.0000
  N   N17       1.0  0.30764  0.77869  0.33542  1.0000
  C   C269      1.0  0.32040  0.62595  0.33411  1.0000
  C   C270      1.0  0.34670  0.69975  0.36106  1.0000
  C   C271      1.0  0.28452  0.63244  0.33189  1.0000
  H   H504      1.0  0.37189  0.88529  0.62406  1.0000
  C   C272      1.0  0.32308  0.82190  0.33137  1.0000
  H   H505      1.0  0.25925  0.78135  0.35362  1.0000
  C   C273      1.0  0.19902  0.72592  0.35291  1.0000
  C   C274      1.0  0.23203  0.92141  0.62593  1.0000
  S   S58       1.0  0.32949  0.99331  0.63747  1.0000
  H   H506      1.0  0.24398  0.86915  0.62053  1.0000
  H   H507      1.0  0.33122  0.90043  0.33018  1.0000
  H   H508      1.0  0.11422  0.71635  0.63790  1.0000
  C   C275      1.0  0.23671  0.79832  0.63522  1.0000
  H   H509      1.0  0.26246  0.81453  0.62582  1.0000
  H   H510      1.0  0.47085  0.54012  0.32400  1.0000
  H   H511      1.0  0.30467  0.73413  0.32230  1.0000
  S   S59       1.0  0.15689  0.69778  0.32225  1.0000
  C   C276      1.0  0.27830  0.52818  0.32090  1.0000
  C   C277      1.0  0.30754  0.51957  0.33063  1.0000
  S   S60       1.0  0.45759  0.67426  0.34917  1.0000
  H   H512      1.0  0.48116  0.52454  0.35900  1.0000
  H   H513      1.0  0.41903  0.52324  0.34850  1.0000
  H   H514      1.0  0.31059  0.83642  0.32194  1.0000
  C   C278      1.0  0.46291  0.81759  0.32249  1.0000
  H   H515      1.0  0.04440  0.96707  0.64240  1.0000
  H   H516      1.0  0.38478  0.50248  0.33842  1.0000
  Fe  Fe29      1.0  0.20238  0.66358  0.31992  1.0000
  C   C279      1.0  0.24238  0.75733  0.64043  1.0000
  H   H517      1.0  0.49320  0.59584  0.35144  1.0000
  C   C280      1.0  0.01924  0.98075  0.64270  1.0000
  H   H518      1.0  0.09354  0.59626  0.32717  1.0000
  C   C281      1.0  0.28206  0.99905  0.64007  1.0000
  C   C282      1.0  0.27822  0.87732  0.64590  1.0000
  H   H519      1.0  0.26895  0.75785  0.64492  1.0000
  H   H520      1.0  0.47050  0.97237  0.32555  1.0000
  H   H521      1.0  0.28266  0.64982  0.32076  1.0000
  H   H522      1.0  0.32663  0.50280  0.32497  1.0000
  H   H523      1.0  0.21752  0.73940  0.64998  1.0000
  C   C283      1.0  0.49198  0.99809  0.32573  1.0000
  Fe  Fe30      1.0  0.16633  0.75806  0.83154  1.0000
  S   S61       1.0  0.15376  0.77483  0.85467  1.0000
  S   S62       1.0  0.21241  0.79328  0.81039  1.0000
  S   S63       1.0  0.42259  0.88841  0.79645  1.0000
  C   C284      1.0  0.05727  0.53998  0.79030  1.0000
  Fe  Fe31      1.0  0.04692  0.93134  0.83960  1.0000
  H   H524      1.0  0.01236  0.79610  0.81221  1.0000
  H   H525      1.0  0.04884  0.59699  0.75600  1.0000
  Fe  Fe32      1.0  0.05077  0.94672  0.80449  1.0000
  H   H526      1.0  0.00273  0.68108  0.77650  1.0000
  H   H527      1.0  0.13166  0.83087  0.72506  1.0000
  H   H528      1.0  0.03714  0.51378  0.78950  1.0000
  C   C285      1.0  0.08117  0.82224  0.67673  1.0000
  H   H529      1.0  0.20847  0.73298  0.88092  1.0000
  C   C286      1.0  0.26471  0.75485  0.86421  1.0000
  S   S64       1.0  0.09510  0.93945  0.81835  1.0000
  H   H530      1.0  0.16009  0.98180  0.83534  1.0000
  C   C287      1.0  0.27348  0.72656  0.72572  1.0000
  H   H531      1.0  0.33863  0.73418  0.74846  1.0000
  C   C288      1.0  0.18474  0.86649  0.68842  1.0000
  H   H532      1.0  0.00976  0.62382  0.69585  1.0000
  H   H533      1.0  0.03324  0.67077  0.87473  1.0000
  H   H534      1.0  0.07287  0.79478  0.74797  1.0000
  S   S65       1.0  0.08076  0.68542  0.74064  1.0000
  C   C289      1.0  0.08264  0.83742  0.87243  1.0000
  H   H535      1.0  0.11992  0.54005  0.76669  1.0000
  C   C290      1.0  0.11207  0.96396  0.73867  1.0000
  C   C291      1.0  0.08486  0.94159  0.75218  1.0000
  C   C292      1.0  0.08513  0.94921  0.76697  1.0000
  C   C293      1.0  0.21958  0.97880  0.83374  1.0000
  H   H536      1.0  0.31734  0.70736  0.67346  1.0000
  H   H537      1.0  0.11146  0.95738  0.72737  1.0000
  H   H538      1.0  0.06230  0.91988  0.75089  1.0000
  C   C294      1.0  0.00741  0.74626  0.87014  1.0000
  H   H539      1.0  0.06696  0.74248  0.84689  1.0000
  C   C295      1.0  0.26754  0.84661  0.72815  1.0000
  C   C296      1.0  0.04788  0.86778  0.69529  1.0000
  C   C297      1.0  0.25776  0.99280  0.82485  1.0000
  H   H540      1.0  0.16409  0.55885  0.73987  1.0000
  H   H541      1.0  0.23259  0.79993  0.86502  1.0000
  H   H542      1.0  0.03884  0.65465  0.65269  1.0000
  C   C298      1.0  0.08684  0.83614  0.78767  1.0000
  C   C299      1.0  0.09807  0.60442  0.77491  1.0000
  H   H543      1.0  0.16113  0.66875  0.76619  1.0000
  H   H544      1.0  0.01417  0.83110  0.78071  1.0000
  C   C300      1.0  0.08581  0.85481  0.73647  1.0000
  C   C301      1.0  0.06705  0.81192  0.77800  1.0000
  H   H545      1.0  0.15568  0.60423  0.76107  1.0000
  C   C302      1.0  0.14183  0.60604  0.77314  1.0000
  C   C303      1.0  0.47059  0.95827  0.71563  1.0000
  C   C304      1.0  0.99932  0.75337  0.84314  1.0000
  S   S66       1.0  0.39943  0.96362  0.82119  1.0000
  C   C305      1.0  0.05755  0.69229  0.86609  1.0000
  H   H546      1.0  0.08999  0.80752  0.76881  1.0000
  C   C306      1.0  0.25532  0.98336  0.65463  1.0000
  C   C307      1.0  0.10667  0.71743  0.74939  1.0000
  C   C308      1.0  0.10082  0.70944  0.76592  1.0000
  C   C309      1.0  0.12123  0.73482  0.77301  1.0000
  H   H547      1.0  0.08016  0.68395  0.77332  1.0000
  H   H548      1.0  0.11645  0.72864  0.78574  1.0000
  C   C310      1.0  0.32990  0.77928  0.80347  1.0000
  C   C311      1.0  0.36894  0.77829  0.80053  1.0000
  C   C312      1.0  0.39713  0.81214  0.79805  1.0000
  C   C313      1.0  0.38651  0.84726  0.79853  1.0000
  C   C314      1.0  0.34754  0.84850  0.80126  1.0000
  C   C315      1.0  0.31935  0.81446  0.80379  1.0000
  H   H549      1.0  0.37744  0.75124  0.80028  1.0000
  H   H550      1.0  0.42726  0.81103  0.79596  1.0000
  H   H551      1.0  0.33914  0.87551  0.80165  1.0000
  H   H552      1.0  0.28950  0.81540  0.80626  1.0000
  C   C316      1.0  0.12137  0.80514  0.85617  1.0000
  C   C317      1.0  0.10807  0.82095  0.84309  1.0000
  C   C318      1.0  0.08244  0.84561  0.84466  1.0000
  C   C319      1.0  0.07001  0.85410  0.85933  1.0000
  H   H553      1.0  0.04359  0.80601  0.73485  1.0000
  H   H554      1.0  0.11630  0.59960  0.74354  1.0000
  H   H555      1.0  0.11781  0.81452  0.83176  1.0000
  H   H556      1.0  0.07201  0.85772  0.83459  1.0000
  C   C320      1.0  0.05591  0.81607  0.74427  1.0000
  N   N18       1.0  0.29124  0.82928  0.85211  1.0000
  C   C321      1.0  0.32871  0.81744  0.84689  1.0000
  C   C322      1.0  0.25746  0.79466  0.85677  1.0000
  C   C323      1.0  0.28599  0.85722  0.83805  1.0000
  C   C324      1.0  0.29167  0.84966  0.86536  1.0000
  C   C325      1.0  0.30113  0.82765  0.88042  1.0000
  C   C326      1.0  0.36575  0.85027  0.84133  1.0000
  C   C327      1.0  0.24820  0.87192  0.84060  1.0000
  H   H557      1.0  0.49247  0.94235  0.71890  1.0000
  C   C328      1.0  0.40192  0.83394  0.83866  1.0000
  C   C329      1.0  0.24243  0.89238  0.82477  1.0000
  H   H558      1.0  0.32717  0.80301  0.83694  1.0000
  H   H559      1.0  0.33368  0.79545  0.85644  1.0000
  C   C330      1.0  0.35981  0.73134  0.71534  1.0000
  H   H560      1.0  0.24640  0.79015  0.84621  1.0000
  H   H561      1.0  0.28727  0.84372  0.82784  1.0000
  H   H562      1.0  0.30964  0.88365  0.83415  1.0000
  H   H563      1.0  0.31193  0.87850  0.86099  1.0000
  H   H564      1.0  0.26300  0.85616  0.86939  1.0000
  H   H565      1.0  0.32872  0.81847  0.87762  1.0000
  H   H566      1.0  0.36617  0.86976  0.82990  1.0000
  H   H567      1.0  0.36813  0.86765  0.85019  1.0000
  H   H568      1.0  0.24962  0.89294  0.84815  1.0000
  C   C331      1.0  0.40041  0.74894  0.70487  1.0000
  H   H569      1.0  0.27750  0.86260  0.89563  1.0000
  S   S67       1.0  0.16965  0.80217  0.77251  1.0000
  H   H570      1.0  0.40503  0.81683  0.85003  1.0000
  H   H571      1.0  0.40071  0.81535  0.83014  1.0000
  H   H572      1.0  0.42775  0.85805  0.83362  1.0000
  H   H573      1.0  0.33628  0.78048  0.70907  1.0000
  H   H574      1.0  0.23587  0.87126  0.81765  1.0000
  H   H575      1.0  0.12764  0.52097  0.73741  1.0000
  H   H576      1.0  0.01659  0.73243  0.67485  1.0000
  N   N19       1.0  0.00552  0.72545  0.85701  1.0000
  H   H577      1.0  0.19805  0.80421  0.65562  1.0000
  H   H578      1.0  0.07053  0.71239  0.87258  1.0000
  H   H579      1.0  0.44404  0.94918  0.72542  1.0000
  S   S68       1.0  0.06449  0.69441  0.69757  1.0000
  H   H580      1.0  0.23059  0.68856  0.74631  1.0000
  H   H581      1.0  0.05176  0.78373  0.78617  1.0000
  C   C332      1.0  0.01614  0.74192  0.76539  1.0000
  N   N20       1.0  0.30198  0.74929  0.73262  1.0000
  H   H582      1.0  0.21319  0.95709  0.84478  1.0000
  C   C333      1.0  0.28208  0.81349  0.72257  1.0000
  S   S69       1.0  0.12389  0.74193  0.81740  1.0000
  Fe  Fe33      1.0  0.11231  0.74144  0.68106  1.0000
  C   C334      1.0  0.03836  0.83208  0.77064  1.0000
  H   H583      1.0  0.21802  0.90657  0.82708  1.0000
  H   H584      1.0  0.32878  0.87886  0.88678  1.0000
  C   C335      1.0  0.28951  0.78461  0.73653  1.0000
  S   S70       1.0  0.10371  0.79430  0.66538  1.0000
  H   H585      1.0  0.01917  0.96739  0.75038  1.0000
  H   H586      1.0  0.23762  0.77474  0.68862  1.0000
  H   H587      1.0  0.13648  0.75838  0.72747  1.0000
  N   N21       1.0  0.22520  0.93309  0.76979  1.0000
  C   C336      1.0  0.18727  0.93352  0.78023  1.0000
  C   C337      1.0  0.21969  0.93587  0.75315  1.0000
  C   C338      1.0  0.23699  0.89631  0.77612  1.0000
  C   C339      1.0  0.25645  0.96688  0.76951  1.0000
  H   H588      1.0  0.26383  0.96713  0.66447  1.0000
  C   C340      1.0  0.18618  0.93042  0.79803  1.0000
  C   C341      1.0  0.27499  0.89084  0.76621  1.0000
  C   C342      1.0  0.19754  0.89834  0.75020  1.0000
  C   C343      1.0  0.19435  0.90360  0.73310  1.0000
  H   H589      1.0  0.21832  0.90350  0.65791  1.0000
  C   C344      1.0  0.16332  0.89085  0.80845  1.0000
  C   C345      1.0  0.27810  0.84873  0.76963  1.0000
  H   H590      1.0  0.16401  0.91031  0.77932  1.0000
  H   H591      1.0  0.17766  0.96011  0.77575  1.0000
  H   H592      1.0  0.20391  0.95877  0.74985  1.0000
  H   H593      1.0  0.24779  0.94541  0.74428  1.0000
  H   H594      1.0  0.21325  0.87080  0.77779  1.0000
  H   H595      1.0  0.24160  0.89500  0.78822  1.0000
  H   H596      1.0  0.26625  0.96276  0.78075  1.0000
  H   H597      1.0  0.28269  0.96868  0.76019  1.0000
  S   S71       1.0  0.44765  0.99882  0.78421  1.0000
  H   H598      1.0  0.01425  0.51444  0.74162  1.0000
  H   H599      1.0  0.21509  0.93675  0.80040  1.0000
  H   H600      1.0  0.17205  0.95290  0.80183  1.0000
  H   H601      1.0  0.29973  0.90805  0.76926  1.0000
  H   H602      1.0  0.27781  0.90051  0.75331  1.0000
  H   H603      1.0  0.21300  0.87490  0.75236  1.0000
  H   H604      1.0  0.16798  0.88865  0.75795  1.0000
  H   H605      1.0  0.22346  0.91302  0.72496  1.0000
  H   H606      1.0  0.18078  0.87546  0.73138  1.0000
  H   H607      1.0  0.17652  0.92478  0.73028  1.0000
  C   C346      1.0  0.13701  0.55260  0.73588  1.0000
  H   H608      1.0  0.04693  0.52707  0.71386  1.0000
  C   C347      1.0  0.10849  0.81322  0.87083  1.0000
  H   H609      1.0  0.15924  0.89127  0.82115  1.0000
  H   H610      1.0  0.13429  0.88363  0.80612  1.0000
  H   H611      1.0  0.17851  0.86777  0.80623  1.0000
  H   H612      1.0  0.25555  0.83086  0.76566  1.0000
  H   H613      1.0  0.30682  0.84642  0.76321  1.0000
  H   H614      1.0  0.27477  0.83736  0.78246  1.0000
  H   H615      1.0  0.27749  0.80204  0.88653  1.0000
  H   H616      1.0  0.02100  0.54979  0.76632  1.0000
  C   C348      1.0  0.21102  0.87180  0.65916  1.0000
  C   C349      1.0  0.99894  0.52492  0.73251  1.0000
  H   H617      1.0  0.41348  0.72589  0.70096  1.0000
  C   C350      1.0  0.07416  0.88522  0.68069  1.0000
  H   H618      1.0  0.07294  0.84381  0.88378  1.0000
  H   H619      1.0  0.20393  0.71767  0.71627  1.0000
  C   C351      1.0  0.05467  0.80470  0.69126  1.0000
  C   C352      1.0  0.35214  0.96170  0.74063  1.0000
  H   H620      1.0  0.06544  0.84391  0.79659  1.0000
  C   C353      1.0  0.33992  0.76318  0.72029  1.0000
  S   S72       1.0  0.29522  0.73595  0.80704  1.0000
  Fe  Fe34      1.0  0.41825  0.97749  0.67299  1.0000
  H   H621      1.0  0.24146  0.86161  0.67833  1.0000
  H   H622      1.0  0.36076  0.78293  0.72444  1.0000
  C   C354      1.0  0.33585  0.80018  0.67687  1.0000
  H   H623      1.0  0.30890  0.82674  0.71316  1.0000
  H   H624      1.0  0.46328  0.95061  0.70488  1.0000
  H   H625      1.0  0.26849  0.91477  0.81788  1.0000
  H   H626      1.0  0.13310  0.88046  0.71585  1.0000
  H   H627      1.0  0.31081  0.83647  0.90297  1.0000
  Fe  Fe35      1.0  0.33925  0.94973  0.69470  1.0000
  C   C355      1.0  0.11352  0.97933  0.76820  1.0000
  H   H628      1.0  0.27282  0.74347  0.71392  1.0000
  C   C356      1.0  0.09023  0.86246  0.67130  1.0000
  H   H629      1.0  0.29274  0.83040  0.68491  1.0000
  C   C357      1.0  0.01488  0.65874  0.81068  1.0000
  H   H630      1.0  0.15451  0.85644  0.68776  1.0000
  H   H631      1.0  0.17497  0.68434  0.73430  1.0000
  H   H632      1.0  0.10262  0.86315  0.74494  1.0000
  Fe  Fe36      1.0  0.09768  0.65450  0.68761  1.0000
  C   C358      1.0  0.03884  0.57646  0.76790  1.0000
  H   H633      1.0  0.19698  0.97691  0.66767  1.0000
  H   H634      1.0  0.23290  0.69621  0.87590  1.0000
  C   C359      1.0  0.21232  0.85327  0.67636  1.0000
  C   C360      1.0  0.05276  0.66145  0.81248  1.0000
  H   H635      1.0  0.29041  0.74863  0.76734  1.0000
  H   H636      1.0  0.24012  0.83538  0.73738  1.0000
  H   H637      1.0  0.26241  0.86670  0.71796  1.0000
  Fe  Fe37      1.0  0.17305  0.77034  0.79626  1.0000
  H   H638      1.0  0.06714  0.52168  0.68856  1.0000
  C   C361      1.0  0.01372  0.55926  0.67288  1.0000
  C   C362      1.0  0.28616  0.68794  0.77613  1.0000
  H   H639      1.0  0.28301  0.70037  0.72326  1.0000
  H   H640      1.0  0.31167  0.80079  0.74136  1.0000
  H   H641      1.0  0.20372  0.82139  0.67906  1.0000
  H   H642      1.0  0.00583  0.68452  0.80594  1.0000
  H   H643      1.0  0.11860  0.80084  0.88097  1.0000
  S   S73       1.0  0.39204  0.92587  0.69330  1.0000
  H   H644      1.0  0.17242  0.80302  0.73993  1.0000
  C   C363      1.0  0.28222  0.72155  0.76350  1.0000
  H   H645      1.0  0.34552  0.93065  0.74470  1.0000
  C   C364      1.0  0.08706  0.52687  0.79926  1.0000
  S   S74       1.0  0.30955  0.95117  0.71899  1.0000
  H   H646      1.0  0.10153  0.55135  0.80335  1.0000
  H   H647      1.0  0.04756  0.77367  0.69550  1.0000
  C   C365      1.0  0.30886  0.72400  0.74713  1.0000
  H   H648      1.0  0.09781  0.65578  0.87008  1.0000
  Fe  Fe38      1.0  0.23257  0.73836  0.81069  1.0000
  H   H649      1.0  0.18757  0.85404  0.70053  1.0000
  S   S75       1.0  0.04876  0.92180  0.78347  1.0000
  C   C366      1.0  0.34253  0.76536  0.67375  1.0000
  C   C367      1.0  0.22686  0.72467  0.87114  1.0000
  S   S76       1.0  0.37607  0.83686  0.67521  1.0000
  C   C368      1.0  0.09377  0.54660  0.76309  1.0000
  H   H650      1.0  0.34318  0.71564  0.70839  1.0000
  H   H651      1.0  0.04446  0.50339  0.82183  1.0000
  H   H652      1.0  0.02766  0.62057  0.78115  1.0000
  C   C369      1.0  0.34153  0.97894  0.72707  1.0000
  H   H653      1.0  0.04787  0.56683  0.82798  1.0000
  H   H654      1.0  0.28933  0.86297  0.73299  1.0000
  H   H655      1.0  0.14928  0.64822  0.78734  1.0000
  H   H656      1.0  0.21434  0.67080  0.72239  1.0000
  H   H657      1.0  0.26647  0.68617  0.78767  1.0000
  H   H658      1.0  0.25149  0.71759  0.76329  1.0000
  C   C370      1.0  0.04414  0.71557  0.85228  1.0000
  S   S77       1.0  0.03819  0.88482  0.86169  1.0000
  H   H659      1.0  0.37840  0.97106  0.75969  1.0000
  H   H660      1.0  0.27993  0.75616  0.87380  1.0000
  H   H661      1.0  0.04497  0.69978  0.84276  1.0000
  C   C371      1.0  0.26682  0.77246  0.68419  1.0000
  C   C372      1.0  0.02663  0.58816  0.68025  1.0000
  S   S78       1.0  0.13234  0.65032  0.70590  1.0000
  C   C373      1.0  0.11398  0.85168  0.72180  1.0000
  H   H662      1.0  0.18039  0.86432  0.65839  1.0000
  H   H663      1.0  0.10464  0.81967  0.79399  1.0000
  H   H664      1.0  0.25993  0.79916  0.71733  1.0000
  H   H665      1.0  0.10594  0.86314  0.77969  1.0000
  S   S79       1.0  0.23679  0.69689  0.68400  1.0000
  H   H666      1.0  0.39958  0.77038  0.69415  1.0000
  H   H667      1.0  0.07535  0.51779  0.76401  1.0000
  H   H668      1.0  0.22000  0.73549  0.74016  1.0000
  Fe  Fe39      1.0  0.36987  0.89710  0.67574  1.0000
  H   H669      1.0  0.03988  0.55341  0.79847  1.0000
  H   H670      1.0  0.00830  0.68147  0.67776  1.0000
  H   H671      1.0  0.28254  0.74448  0.85491  1.0000
  H   H672      1.0  0.05251  0.86291  0.76607  1.0000
  S   S80       1.0  0.07616  0.60326  0.67847  1.0000
  H   H673      1.0  0.22541  0.97319  0.71054  1.0000
  H   H674      1.0  0.08682  0.61220  0.78623  1.0000
  C   C374      1.0  0.27388  0.73764  0.68103  1.0000
  C   C375      1.0  0.03881  0.59252  0.82306  1.0000
  N   N22       1.0  0.07298  0.56724  0.77409  1.0000
  C   C376      1.0  0.20467  0.69515  0.72664  1.0000
  H   H675      1.0  0.22235  0.84827  0.84630  1.0000
  H   H676      1.0  0.14725  0.58227  0.78174  1.0000
  H   H677      1.0  0.31611  0.69228  0.77771  1.0000
  S   S81       1.0  0.03041  0.89629  0.70768  1.0000
  H   H678      1.0  0.27836  0.66011  0.77285  1.0000
  H   H679      1.0  0.09653  0.62875  0.76536  1.0000
  Fe  Fe40      1.0  0.34764  0.96806  0.65935  1.0000
  C   C377      1.0  0.03729  0.82744  0.70035  1.0000
  S   S82       1.0  0.35347  0.96314  0.79254  1.0000
  Fe  Fe41      1.0  0.10371  0.69499  0.71428  1.0000
  C   C378      1.0  0.15262  0.77682  0.74718  1.0000
  S   S83       1.0  0.18895  0.70421  0.83280  1.0000
  C   C379      1.0  0.13260  0.75121  0.74009  1.0000
  C   C380      1.0  0.14681  0.76873  0.76364  1.0000
  H   H680      1.0  0.21082  0.72171  0.86185  1.0000
  C   C381      1.0  0.29792  0.80387  0.68209  1.0000
  H   H681      1.0  0.19161  0.89844  0.68624  1.0000
  H   H682      1.0  0.09854  0.84200  0.71321  1.0000
  C   C382      1.0  0.01550  0.51478  0.71669  1.0000
  S   S84       1.0  0.31417  0.91648  0.67885  1.0000
  H   H683      1.0  0.26465  0.96946  0.69515  1.0000
  C   C383      1.0  0.23658  0.97799  0.69758  1.0000
  N   N23       1.0  0.02359  0.81675  0.75781  1.0000
  C   C384      1.0  0.00416  0.56859  0.73021  1.0000
  H   H684      1.0  0.02484  0.73125  0.82303  1.0000
  S   S85       1.0  0.14908  0.74567  0.69845  1.0000
  H   H685      1.0  0.41899  0.76342  0.71152  1.0000
  C   C385      1.0  0.10567  0.56807  0.74524  1.0000
  H   H686      1.0  0.01707  0.87343  0.74640  1.0000
  Fe  Fe42      1.0  0.06755  0.95630  0.69879  1.0000
  Fe  Fe43      1.0  0.17491  0.70095  0.68890  1.0000
  H   H687      1.0  0.11057  0.87615  0.66004  1.0000
  Fe  Fe44      1.0  0.40560  0.94428  0.79851  1.0000
  Fe  Fe45      1.0  0.35086  0.98752  0.81395  1.0000
  C   C386      1.0  0.23165  0.71205  0.73599  1.0000
  C   C387      1.0  0.30473  0.85307  0.89213  1.0000
  H   H688      1.0  0.08225  0.91630  0.67662  1.0000
  H   H689      1.0  0.19333  0.64387  0.77505  1.0000
  H   H690      1.0  0.36254  0.71016  0.72573  1.0000
  H   H691      1.0  0.21586  0.95975  0.69296  1.0000
  H   H692      1.0  0.07226  0.87867  0.73237  1.0000
  C   C388      1.0  0.31174  0.73426  0.67584  1.0000
  S   S86       1.0  0.14270  0.70159  0.66987  1.0000
  C   C389      1.0  0.13858  0.99564  0.73964  1.0000
  H   H693      1.0  0.24553  0.80605  0.65809  1.0000
  Fe  Fe46      1.0  0.14954  0.69009  0.81716  1.0000
  S   S87       1.0  0.11200  0.63065  0.82132  1.0000
  H   H694      1.0  0.28483  0.86465  0.65726  1.0000
  S   S88       1.0  0.13204  0.96622  0.69262  1.0000
  C   C390      1.0  0.16255  0.64407  0.77558  1.0000
  S   S89       1.0  0.19610  0.71762  0.79508  1.0000
  H   H695      1.0  0.02236  0.78042  0.83972  1.0000
  C   C391      1.0  0.08799  0.67117  0.86001  1.0000
  H   H696      1.0  0.14305  0.56691  0.72306  1.0000
  C   C392      1.0  0.06477  0.62838  0.81881  1.0000
  H   H697      1.0  0.26274  0.77670  0.74613  1.0000
  H   H698      1.0  0.11449  0.98504  0.77964  1.0000
  C   C393      1.0  0.99999  0.84339  0.75102  1.0000
  H   H699      1.0  0.03439  0.54827  0.66544  1.0000
  H   H700      1.0  0.11314  0.69224  0.85172  1.0000
  H   H701      1.0  0.30738  0.69404  0.74562  1.0000
  H   H702      1.0  0.07618  0.64978  0.85379  1.0000
  H   H703      1.0  0.08034  0.56383  0.74000  1.0000
  H   H704      1.0  0.07258  0.68909  0.80885  1.0000
  H   H705      1.0  0.03381  0.77000  0.86662  1.0000
  H   H706      1.0  0.01677  0.81385  0.71155  1.0000
  H   H707      1.0  0.10898  0.51602  0.79187  1.0000
  C   C394      1.0  0.00116  0.58972  0.82100  1.0000
  S   S90       1.0  0.06436  0.99556  0.67641  1.0000
  S   S91       1.0  0.00150  0.93253  0.82583  1.0000
  H   H708      1.0  0.37176  0.76229  0.66980  1.0000
  C   C395      1.0  0.01142  0.59524  0.77816  1.0000
  C   C396      1.0  0.37090  0.98460  0.74908  1.0000
  H   H709      1.0  0.00111  0.79891  0.88902  1.0000
  H   H710      1.0  0.01012  0.72639  0.88098  1.0000
  S   S92       1.0  0.40188  0.94628  0.65507  1.0000
  H   H711      1.0  0.00723  0.98189  0.65509  1.0000
  H   H712      1.0  0.03443  0.58391  0.72424  1.0000
  S   S93       1.0  0.29519  0.97691  0.83231  1.0000
  S   S94       1.0  0.05715  0.99435  0.83972  1.0000
  H   H713      1.0  0.06476  0.68387  0.66310  1.0000
  H   H714      1.0  0.02718  0.73834  0.75326  1.0000
  C   C397      1.0  0.21756  0.98898  0.65645  1.0000
  H   H715      1.0  0.00511  0.53159  0.70715  1.0000
  Fe  Fe47      1.0  0.01522  0.99604  0.82418  1.0000
  C   C398      1.0  0.99988  0.60225  0.68985  1.0000
  H   H716      1.0  0.04042  0.74511  0.77113  1.0000
  C   C399      1.0  0.18951  0.99273  0.82841  1.0000
  H   H717      1.0  0.99838  0.77186  0.65423  1.0000
  H   H718      1.0  0.84327  0.28614  0.16479  1.0000
  H   H719      1.0  0.93964  0.29332  0.25100  1.0000
  H   H720      1.0  0.70211  0.26071  0.13375  1.0000
  Fe  Fe48      1.0  0.69467  0.15512  0.17414  1.0000
  S   S95       1.0  0.69495  0.17454  0.14849  1.0000
  S   S96       1.0  0.71782  0.19669  0.18745  1.0000
  Fe  Fe49      1.0  0.65237  0.07353  0.17709  1.0000
  S   S97       1.0  0.64887  0.08519  0.15175  1.0000
  H   H721      1.0  0.87393  0.46642  0.06888  1.0000
  Fe  Fe50      1.0  0.71000  0.11792  0.14677  1.0000
  S   S98       1.0  0.75373  0.11864  0.12499  1.0000
  Fe  Fe51      1.0  0.63399  0.14054  0.15541  1.0000
  H   H722      1.0  0.60397  0.14586  0.21036  1.0000
  S   S99       1.0  0.71533  0.10125  0.17192  1.0000
  S   S100      1.0  0.63204  0.12639  0.18133  1.0000
  S   S101      1.0  0.81317  0.26798  0.04428  1.0000
  Fe  Fe52      1.0  0.80497  0.36384  0.05574  1.0000
  S   S102      1.0  0.80035  0.31019  0.07429  1.0000
  Fe  Fe53      1.0  0.84976  0.30098  0.05696  1.0000
  Fe  Fe54      1.0  0.76428  0.28191  0.06012  1.0000
  S   S103      1.0  0.71060  0.23736  0.07278  1.0000
  S   S104      1.0  0.76428  0.33650  0.04301  1.0000
  C   C400      1.0  0.74165  0.14908  0.10964  1.0000
  C   C401      1.0  0.70353  0.15301  0.11114  1.0000
  C   C402      1.0  0.69403  0.17958  0.09960  1.0000
  C   C403      1.0  0.72266  0.20274  0.08663  1.0000
  C   C404      1.0  0.76083  0.19874  0.08504  1.0000
  C   C405      1.0  0.77021  0.17142  0.09641  1.0000
  H   H723      1.0  0.68127  0.13590  0.12128  1.0000
  H   H724      1.0  0.66472  0.18305  0.10101  1.0000
  H   H725      1.0  0.78320  0.21673  0.07511  1.0000
  H   H726      1.0  0.79970  0.16853  0.09521  1.0000
  N   N24       1.0  0.60323  0.13512  0.23525  1.0000
  H   H727      1.0  0.95287  0.25007  0.10568  1.0000
  H   H728      1.0  0.79534  0.33186  0.23370  1.0000
  C   C406      1.0  0.78903  0.18034  0.18541  1.0000
  C   C407      1.0  0.76824  0.20860  0.18193  1.0000
  C   C408      1.0  0.78782  0.24673  0.17451  1.0000
  H   H729      1.0  0.62474  0.21336  0.16008  1.0000
  H   H730      1.0  0.77394  0.15085  0.19114  1.0000
  H   H731      1.0  0.77156  0.26828  0.17154  1.0000
  C   C409      1.0  0.92352  0.18233  0.08042  1.0000
  H   H732      1.0  0.78237  0.25878  0.01373  1.0000
  H   H733      1.0  0.62559  0.22704  0.10915  1.0000
  C   C410      1.0  0.79531  0.26268  0.00127  1.0000
  C   C411      1.0  0.60677  0.15782  0.24764  1.0000
  S   S105      1.0  0.89906  0.27683  0.06347  1.0000
  H   H734      1.0  0.76681  0.20594  0.00033  1.0000
  C   C412      1.0  0.88854  0.21072  0.99480  1.0000
  C   C413      1.0  0.81393  0.19209  0.24988  1.0000
  C   C414      1.0  0.79637  0.14872  0.25494  1.0000
  H   H735      1.0  0.64056  0.26481  0.12570  1.0000
  H   H736      1.0  0.61544  0.49645  0.24752  1.0000
  H   H737      1.0  0.67616  0.32995  0.04299  1.0000
  H   H738      1.0  0.84477  0.19604  0.24401  1.0000
  H   H739      1.0  0.81224  0.20278  0.26077  1.0000
  H   H740      1.0  0.81202  0.13436  0.26312  1.0000
  H   H741      1.0  0.76555  0.14290  0.26130  1.0000
  H   H742      1.0  0.79876  0.13610  0.24444  1.0000
  C   C415      1.0  0.70183  0.26907  0.12102  1.0000
  C   C416      1.0  0.53618  0.09511  0.28670  1.0000
  S   S106      1.0  0.93441  0.36976  0.25379  1.0000
  C   C417      1.0  0.64247  0.44279  0.23197  1.0000
  C   C418      1.0  0.55511  0.06550  0.28445  1.0000
  H   H743      1.0  0.85650  0.21896  0.21629  1.0000
  H   H744      1.0  0.80062  0.30199  0.21429  1.0000
  H   H745      1.0  0.84542  0.16849  0.18451  1.0000
  H   H746      1.0  0.97618  0.35008  0.20044  1.0000
  H   H747      1.0  0.67070  0.33069  0.23715  1.0000
  C   C419      1.0  0.61437  0.20253  0.21551  1.0000
  H   H748      1.0  0.91841  0.34715  0.10451  1.0000
  S   S107      1.0  0.85210  0.49860  0.27918  1.0000
  H   H749      1.0  0.71406  0.40776  0.21192  1.0000
  C   C420      1.0  0.58586  0.05441  0.11466  1.0000
  C   C421      1.0  0.68634  0.00759  0.12260  1.0000
  C   C422      1.0  0.97422  0.35875  0.21184  1.0000
  S   S108      1.0  0.50258  0.01512  0.25969  1.0000
  H   H750      1.0  0.71926  0.47844  0.30945  1.0000
  H   H751      1.0  0.52761  0.35491  0.20183  1.0000
  C   C423      1.0  0.60927  0.06745  0.09712  1.0000
  C   C424      1.0  0.61235  0.11033  0.09039  1.0000
  H   H752      1.0  0.86431  0.47608  0.22410  1.0000
  C   C425      1.0  0.50501  0.32818  0.20454  1.0000
  H   H753      1.0  0.55801  0.35160  0.13126  1.0000
  H   H754      1.0  0.64041  0.23209  0.25044  1.0000
  H   H755      1.0  0.94940  0.31239  0.01151  1.0000
  C   C426      1.0  0.54900  0.05940  0.18870  1.0000
  H   H756      1.0  0.60032  0.07235  0.12161  1.0000
  C   C427      1.0  0.55004  0.48558  0.30112  1.0000
  S   S109      1.0  0.65634  0.19482  0.30991  1.0000
  H   H757      1.0  0.53945  0.29510  0.21668  1.0000
  H   H758      1.0  0.59532  0.05130  0.08959  1.0000
  H   H759      1.0  0.79608  0.44401  0.12478  1.0000
  H   H760      1.0  0.93946  0.24191  0.01073  1.0000
  H   H761      1.0  0.83617  0.42759  0.23000  1.0000
  H   H762      1.0  0.59183  0.40909  0.25103  1.0000
  C   C428      1.0  0.93754  0.12794  0.03473  1.0000
  H   H763      1.0  0.52737  0.08639  0.16964  1.0000
  C   C429      1.0  0.82011  0.29778  0.99262  1.0000
  N   N25       1.0  0.88679  0.20133  0.01238  1.0000
  H   H764      1.0  0.58343  0.11609  0.09006  1.0000
  H   H765      1.0  0.62548  0.12762  0.09777  1.0000
  H   H766      1.0  0.63093  0.11963  0.07813  1.0000
  H   H767      1.0  0.88200  0.15026  0.99204  1.0000
  H   H768      1.0  0.52804  0.37735  0.22898  1.0000
  C   C430      1.0  0.90655  0.16826  0.01604  1.0000
  H   H769      1.0  0.71724  0.26499  0.99515  1.0000
  C   C431      1.0  0.56540  0.42122  0.20921  1.0000
  S   S110      1.0  0.66972  0.44725  0.11246  1.0000
  C   C432      1.0  0.92693  0.16686  0.02999  1.0000
  H   H770      1.0  0.96761  0.47180  0.20379  1.0000
  H   H771      1.0  0.61537  0.37879  0.22499  1.0000
  N   N26       1.0  0.88139  0.19898  0.12216  1.0000
  C   C433      1.0  0.85893  0.15872  0.13090  1.0000
  C   C434      1.0  0.88935  0.20136  0.10458  1.0000
  C   C435      1.0  0.91820  0.20692  0.12759  1.0000
  C   C436      1.0  0.85894  0.22881  0.12559  1.0000
  C   C437      1.0  0.81832  0.22267  0.12217  1.0000
  C   C438      1.0  0.84221  0.15255  0.14898  1.0000
  C   C439      1.0  0.94693  0.24572  0.11873  1.0000
  C   C440      1.0  0.91770  0.17735  0.09834  1.0000
  C   C441      1.0  0.79753  0.25317  0.12679  1.0000
  C   C442      1.0  0.82120  0.11059  0.15658  1.0000
  H   H772      1.0  0.57480  0.46285  0.26150  1.0000
  H   H773      1.0  0.87741  0.13758  0.12959  1.0000
  H   H774      1.0  0.83468  0.14938  0.12554  1.0000
  H   H775      1.0  0.86212  0.19135  0.10116  1.0000
  H   H776      1.0  0.90005  0.23184  0.09761  1.0000
  H   H777      1.0  0.93341  0.18294  0.12702  1.0000
  H   H778      1.0  0.91176  0.20758  0.14032  1.0000
  H   H779      1.0  0.85611  0.23093  0.13813  1.0000
  H   H780      1.0  0.87495  0.25802  0.11832  1.0000
  H   H781      1.0  0.79994  0.19413  0.12891  1.0000
  H   H782      1.0  0.82036  0.22502  0.10935  1.0000
  H   H783      1.0  0.86537  0.15962  0.15510  1.0000
  H   H784      1.0  0.82113  0.17068  0.15134  1.0000
  H   H785      1.0  0.93532  0.27022  0.12193  1.0000
  H   H786      1.0  0.88906  0.44036  0.18590  1.0000
  H   H787      1.0  0.94645  0.18653  0.10062  1.0000
  H   H788      1.0  0.90641  0.14619  0.10407  1.0000
  H   H789      1.0  0.76825  0.24693  0.12473  1.0000
  H   H790      1.0  0.79477  0.25253  0.13956  1.0000
  H   H791      1.0  0.81324  0.28221  0.11938  1.0000
  H   H792      1.0  0.79724  0.10208  0.15099  1.0000
  H   H793      1.0  0.84138  0.09105  0.15531  1.0000
  H   H794      1.0  0.80887  0.10721  0.16942  1.0000
  H   H795      1.0  0.53965  0.15763  0.22322  1.0000
  Fe  Fe55      1.0  0.93246  0.41303  0.30407  1.0000
  C   C443      1.0  0.52124  0.01542  0.14397  1.0000
  C   C444      1.0  0.66733  0.28679  0.11942  1.0000
  H   H796      1.0  0.84942  0.19909  0.04477  1.0000
  H   H797      1.0  0.64480  0.21817  0.19049  1.0000
  C   C445      1.0  0.61718  0.21992  0.19802  1.0000
  C   C446      1.0  0.82939  0.19036  0.18168  1.0000
  H   H798      1.0  0.93728  0.21281  0.07411  1.0000
  H   H799      1.0  0.63904  0.06295  0.09602  1.0000
  H   H800      1.0  0.63794  0.22008  0.21905  1.0000
  C   C447      1.0  0.82827  0.25672  0.17062  1.0000
  H   H801      1.0  0.63568  0.28986  0.06844  1.0000
  C   C448      1.0  0.61769  0.33703  0.10940  1.0000
  Fe  Fe56      1.0  0.81672  0.32505  0.02816  1.0000
  S   S111      1.0  0.85787  0.35729  0.03942  1.0000
  C   C449      1.0  0.71997  0.44268  0.24151  1.0000
  H   H802      1.0  0.94315  0.43182  0.09387  1.0000
  H   H803      1.0  0.61094  0.34072  0.07901  1.0000
  H   H804      1.0  0.59293  0.20454  0.19409  1.0000
  S   S112      1.0  0.65678  0.09866  0.29534  1.0000
  C   C450      1.0  0.52975  0.09037  0.18153  1.0000
  C   C451      1.0  0.59958  0.22265  0.15730  1.0000
  H   H805      1.0  0.66907  0.31074  0.12546  1.0000
  C   C452      1.0  0.59165  0.12791  0.29419  1.0000
  C   C453      1.0  0.59048  0.25622  0.16120  1.0000
  H   H806      1.0  0.89550  0.17411  0.07732  1.0000
  C   C454      1.0  0.92636  0.30209  0.07407  1.0000
  H   H807      1.0  0.69147  0.32908  0.09722  1.0000
  H   H808      1.0  0.91895  0.22337  0.98796  1.0000
  C   C455      1.0  0.63813  0.33468  0.08182  1.0000
  H   H809      1.0  0.60849  0.27258  0.16706  1.0000
  H   H810      1.0  0.55135  0.09565  0.25026  1.0000
  H   H811      1.0  0.59088  0.18124  0.24651  1.0000
  H   H812      1.0  0.68376  0.30955  0.07014  1.0000
  H   H813      1.0  0.95116  0.33743  0.22124  1.0000
  C   C456      1.0  0.66407  0.34403  0.05228  1.0000
  H   H814      1.0  0.58685  0.20618  0.22232  1.0000
  C   C457      1.0  0.84904  0.22847  0.17423  1.0000
  H   H815      1.0  0.68547  0.37074  0.05153  1.0000
  H   H816      1.0  0.64950  0.16095  0.21402  1.0000
  C   C458      1.0  0.89639  0.27538  0.01016  1.0000
  C   C459      1.0  0.90910  0.31794  0.08610  1.0000
  H   H817      1.0  0.92103  0.29257  0.20531  1.0000
  C   C460      1.0  0.65594  0.31634  0.06862  1.0000
  H   H818      1.0  0.63106  0.24183  0.08820  1.0000
  H   H819      1.0  0.82932  0.16587  0.01729  1.0000
  C   C461      1.0  0.93170  0.33536  0.09512  1.0000
  H   H820      1.0  0.87833  0.31593  0.08869  1.0000
  H   H821      1.0  0.61593  0.25083  0.19627  1.0000
  H   H822      1.0  0.67766  0.28203  0.09506  1.0000
  H   H823      1.0  0.63716  0.35178  0.04988  1.0000
  H   H824      1.0  0.66770  0.18646  0.23603  1.0000
  H   H825      1.0  0.70004  0.24288  0.11624  1.0000
  C   C462      1.0  0.56158  0.11477  0.23804  1.0000
  C   C463      1.0  0.68954  0.42255  0.21266  1.0000
  H   H826      1.0  0.72909  0.29027  0.11450  1.0000
  H   H827      1.0  0.93711  0.40370  0.19108  1.0000
  H   H828      1.0  0.56145  0.21418  0.09148  1.0000
  H   H829      1.0  0.50908  0.40313  0.18851  1.0000
  H   H830      1.0  0.77673  0.39484  0.98599  1.0000
  Fe  Fe57      1.0  0.93707  0.41073  0.26975  1.0000
  C   C464      1.0  0.66789  0.30267  0.10180  1.0000
  N   N27       1.0  0.63058  0.31154  0.09874  1.0000
  H   H831      1.0  0.65765  0.36337  0.08027  1.0000
  C   C465      1.0  0.91345  0.29108  0.25977  1.0000
  C   C466      1.0  0.59882  0.27565  0.10215  1.0000
  H   H832      1.0  0.77918  0.19001  0.04348  1.0000
  H   H833      1.0  0.85860  0.30025  0.22231  1.0000
  H   H834      1.0  0.70706  0.33040  0.29339  1.0000
  C   C467      1.0  0.61826  0.15974  0.21845  1.0000
  H   H835      1.0  0.55834  0.09571  0.22978  1.0000
  H   H836      1.0  0.79315  0.20019  0.22838  1.0000
  S   S113      1.0  0.82990  0.20547  0.29053  1.0000
  H   H837      1.0  0.95075  0.47380  0.18619  1.0000
  C   C468      1.0  0.79224  0.21339  0.23875  1.0000
  C   C469      1.0  0.84491  0.19003  0.02122  1.0000
  C   C470      1.0  0.90338  0.32451  0.26324  1.0000
  H   H838      1.0  0.72852  0.23536  0.22999  1.0000
  C   C471      1.0  0.80723  0.40219  0.20307  1.0000
  H   H839      1.0  0.86360  0.45840  0.20068  1.0000
  H   H840      1.0  0.76133  0.20561  0.24522  1.0000
  H   H841      1.0  0.76112  0.40485  0.29472  1.0000
  S   S114      1.0  0.89952  0.23976  0.16948  1.0000
  C   C472      1.0  0.78731  0.27117  0.22028  1.0000
  C   C473      1.0  0.78851  0.49725  0.11170  1.0000
  H   H842      1.0  0.76404  0.26347  0.25323  1.0000
  H   H843      1.0  0.89903  0.22880  0.26567  1.0000
  H   H844      1.0  0.71605  0.42731  0.26697  1.0000
  H   H845      1.0  0.80996  0.26349  0.25679  1.0000
  H   H846      1.0  0.73467  0.28214  0.23449  1.0000
  H   H847      1.0  0.58185  0.26855  0.11471  1.0000
  C   C474      1.0  0.79530  0.27381  0.24741  1.0000
  H   H848      1.0  0.91019  0.30184  0.02898  1.0000
  C   C475      1.0  0.61102  0.23780  0.09982  1.0000
  C   C476      1.0  0.86596  0.25083  0.21330  1.0000
  C   C477      1.0  0.84922  0.26842  0.22704  1.0000
  N   N28       1.0  0.80609  0.25674  0.23337  1.0000
  Fe  Fe58      1.0  0.92760  0.30232  0.15880  1.0000
  Fe  Fe59      1.0  0.97540  0.35578  0.12795  1.0000
  C   C478      1.0  0.74298  0.26627  0.22533  1.0000
  H   H849      1.0  0.80283  0.36375  0.25664  1.0000
  H   H850      1.0  0.79050  0.31583  0.26940  1.0000
  H   H851      1.0  0.86400  0.26176  0.23681  1.0000
  C   C479      1.0  0.79280  0.16547  0.04686  1.0000
  C   C480      1.0  0.78803  0.33336  0.25801  1.0000
  H   H852      1.0  0.78087  0.36005  0.14206  1.0000
  H   H853      1.0  0.78682  0.37389  0.20548  1.0000
  C   C481      1.0  0.89060  0.25460  0.26813  1.0000
  C   C482      1.0  0.86937  0.32132  0.27455  1.0000
  H   H854      1.0  0.79270  0.25560  0.21069  1.0000
  H   H855      1.0  0.85685  0.26257  0.20241  1.0000
  N   N29       1.0  0.91117  0.43514  0.20705  1.0000
  H   H856      1.0  0.90931  0.33538  0.01117  1.0000
  H   H857      1.0  0.57765  0.28101  0.09489  1.0000
  S   S115      1.0  0.91186  0.33874  0.13855  1.0000
  H   H858      1.0  0.81282  0.32868  0.13748  1.0000
  C   C483      1.0  0.90801  0.23690  0.01611  1.0000
  C   C484      1.0  0.80582  0.31853  0.24392  1.0000
  C   C485      1.0  0.90998  0.26085  0.20932  1.0000
  H   H859      1.0  0.70951  0.49072  0.08167  1.0000
  H   H860      1.0  0.61682  0.08719  0.25043  1.0000
  C   C486      1.0  0.58237  0.35362  0.10650  1.0000
  C   C487      1.0  0.62619  0.10440  0.23785  1.0000
  H   H861      1.0  0.92141  0.24774  0.19959  1.0000
  H   H862      1.0  0.86048  0.34686  0.27686  1.0000
  H   H863      1.0  0.88570  0.14011  0.01829  1.0000
  H   H864      1.0  0.78703  0.38797  0.11427  1.0000
  C   C488      1.0  0.79140  0.34404  0.13331  1.0000
  H   H865      1.0  0.90906  0.17195  0.04070  1.0000
  H   H866      1.0  0.83758  0.32889  0.24140  1.0000
  H   H867      1.0  0.50874  0.25547  0.14787  1.0000
  H   H868      1.0  0.82073  0.28268  0.29183  1.0000
  H   H869      1.0  0.85971  0.41906  0.25562  1.0000
  H   H870      1.0  0.59588  0.05608  0.23002  1.0000
  S   S116      1.0  0.62344  0.01631  0.19411  1.0000
  S   S117      1.0  0.54357  0.30750  0.16390  1.0000
  N   N30       1.0  0.66539  0.41250  0.22956  1.0000
  C   C489      1.0  0.57619  0.20136  0.14979  1.0000
  C   C490      1.0  0.51478  0.49547  0.31114  1.0000
  C   C491      1.0  0.90802  0.42939  0.05967  1.0000
  C   C492      1.0  0.55744  0.26776  0.15796  1.0000
  H   H871      1.0  0.70910  0.38292  0.11247  1.0000
  H   H872      1.0  0.84529  0.38073  0.21656  1.0000
  H   H873      1.0  0.95409  0.18951  0.02634  1.0000
  H   H874      1.0  0.75963  0.37160  0.09132  1.0000
  H   H875      1.0  0.60726  0.04503  0.28465  1.0000
  C   C493      1.0  0.80906  0.37200  0.11709  1.0000
  S   S118      1.0  0.61645  0.36787  0.18320  1.0000
  H   H876      1.0  0.58022  0.02318  0.14542  1.0000
  C   C494      1.0  0.64864  0.17510  0.24813  1.0000
  H   H877      1.0  0.76635  0.32249  0.13263  1.0000
  H   H878      1.0  0.89104  0.46479  0.11742  1.0000
  H   H879      1.0  0.89002  0.39581  0.09045  1.0000
  C   C495      1.0  0.65389  0.34013  0.22848  1.0000
  S   S119      1.0  0.98119  0.41423  0.28405  1.0000
  S   S120      1.0  0.68597  0.28178  0.27287  1.0000
  H   H880      1.0  0.63205  0.09083  0.21439  1.0000
  C   C496      1.0  0.62480  0.07552  0.22709  1.0000
  H   H881      1.0  0.65727  0.11798  0.23583  1.0000
  C   C497      1.0  0.81331  0.42997  0.15769  1.0000
  C   C498      1.0  0.63371  0.37602  0.28947  1.0000
  H   H882      1.0  0.78527  0.32280  0.18102  1.0000
  H   H883      1.0  0.75718  0.33259  0.25849  1.0000
  H   H884      1.0  0.55836  0.33058  0.10606  1.0000
  H   H885      1.0  0.55773  0.06287  0.11496  1.0000
  C   C499      1.0  0.56136  0.00561  0.13975  1.0000
  C   C500      1.0  0.68161  0.33692  0.28984  1.0000
  C   C501      1.0  0.84726  0.39599  0.20423  1.0000
  H   H886      1.0  0.50308  0.14138  0.16365  1.0000
  Fe  Fe60      1.0  0.59486  0.35360  0.16261  1.0000
  H   H887      1.0  0.81494  0.35480  0.10819  1.0000
  H   H888      1.0  0.61001  0.32093  0.12210  1.0000
  H   H889      1.0  0.58485  0.40319  0.20618  1.0000
  S   S121      1.0  0.98628  0.40638  0.13865  1.0000
  H   H890      1.0  0.88349  0.40948  0.05775  1.0000
  S   S122      1.0  0.58597  0.15867  0.14528  1.0000
  Fe  Fe61      1.0  0.90010  0.46936  0.28317  1.0000
  H   H891      1.0  0.64693  0.03340  0.24199  1.0000
  H   H892      1.0  0.64169  0.36201  0.10827  1.0000
  C   C502      1.0  0.83625  0.17633  0.03951  1.0000
  S   S123      1.0  0.65281  0.35447  0.14795  1.0000
  S   S124      1.0  0.71583  0.34869  0.17970  1.0000
  H   H893      1.0  0.85376  0.35472  0.16944  1.0000
  S   S125      1.0  0.93250  0.34800  0.17250  1.0000
  C   C503      1.0  0.79295  0.35256  0.17443  1.0000
  S   S126      1.0  0.88796  0.40487  0.29021  1.0000
  H   H894      1.0  0.78275  0.36452  0.29202  1.0000
  C   C504      1.0  0.65353  0.04993  0.22943  1.0000
  H   H895      1.0  0.66056  0.15230  0.25465  1.0000
  S   S127      1.0  0.72994  0.19705  0.28125  1.0000
  N   N31       1.0  0.57928  0.01204  0.12233  1.0000
  C   C505      1.0  0.57611  0.20594  0.10110  1.0000
  H   H896      1.0  0.84605  0.40222  0.08603  1.0000
  C   C506      1.0  0.63244  0.32523  0.27536  1.0000
  H   H897      1.0  0.65171  0.02906  0.22184  1.0000
  C   C507      1.0  0.83176  0.37070  0.16793  1.0000
  Fe  Fe62      1.0  0.92387  0.38629  0.15090  1.0000
  H   H898      1.0  0.68347  0.06766  0.22597  1.0000
  H   H899      1.0  0.78738  0.15732  0.06000  1.0000
  H   H900      1.0  0.87192  0.23303  0.99176  1.0000
  C   C508      1.0  0.96609  0.39909  0.21019  1.0000
  C   C509      1.0  0.54384  0.21366  0.14616  1.0000
  C   C510      1.0  0.76418  0.37261  0.17207  1.0000
  H   H901      1.0  0.58576  0.17900  0.10001  1.0000
  C   C511      1.0  0.61472  0.43564  0.24852  1.0000
  C   C512      1.0  0.85713  0.25141  0.27975  1.0000
  H   H902      1.0  0.68051  0.21799  0.25731  1.0000
  C   C513      1.0  0.59241  0.06747  0.28680  1.0000
  H   H903      1.0  0.61943  0.30908  0.26799  1.0000
  H   H904      1.0  0.55547  0.20008  0.11280  1.0000
  C   C514      1.0  0.53421  0.24650  0.15042  1.0000
  H   H905      1.0  0.67998  0.38397  0.30125  1.0000
  H   H906      1.0  0.63076  0.43327  0.25798  1.0000
  H   H907      1.0  0.64048  0.01766  0.13927  1.0000
  C   C515      1.0  0.84635  0.28484  0.28283  1.0000
  C   C516      1.0  0.91774  0.30813  0.01584  1.0000
  Fe  Fe63      1.0  0.67485  0.37483  0.16752  1.0000
  C   C517      1.0  0.82713  0.49638  0.31075  1.0000
  H   H908      1.0  0.59047  0.39687  0.12011  1.0000
  C   C518      1.0  0.66492  0.31638  0.28018  1.0000
  H   H909      1.0  0.63225  0.19701  0.26910  1.0000
  H   H910      1.0  0.91934  0.46825  0.07422  1.0000
  H   H911      1.0  0.89177  0.39991  0.23127  1.0000
  H   H912      1.0  0.83040  0.21405  0.01829  1.0000
  S   S128      1.0  0.68252  0.43766  0.15635  1.0000
  H   H913      1.0  0.81713  0.37203  0.31295  1.0000
  C   C519      1.0  0.96817  0.46920  0.10674  1.0000
  H   H914      1.0  0.70669  0.38462  0.23917  1.0000
  H   H915      1.0  0.91115  0.10435  0.03918  1.0000
  H   H916      1.0  0.84230  0.40971  0.12829  1.0000
  C   C520      1.0  0.66611  0.36700  0.29439  1.0000
  H   H917      1.0  0.90389  0.28439  0.99700  1.0000
  H   H918      1.0  0.84707  0.14992  0.04298  1.0000
  C   C521      1.0  0.73826  0.43422  0.25561  1.0000
  H   H919      1.0  0.59050  0.37615  0.09518  1.0000
  C   C522      1.0  0.74841  0.39740  0.08923  1.0000
  H   H920      1.0  0.59253  0.13901  0.25964  1.0000
  C   C523      1.0  0.94181  0.27195  0.30129  1.0000
  H   H921      1.0  0.92156  0.45164  0.04843  1.0000
  C   C524      1.0  0.72721  0.28191  0.21126  1.0000
  H   H922      1.0  0.54019  0.14951  0.29323  1.0000
  S   S129      1.0  0.72645  0.15244  0.31744  1.0000
  H   H923      1.0  0.69536  0.27597  0.21482  1.0000
  C   C525      1.0  0.51401  0.46753  0.21667  1.0000
  H   H924      1.0  0.73838  0.31357  0.20710  1.0000
  H   H925      1.0  0.76171  0.48105  0.06136  1.0000
  H   H926      1.0  0.73537  0.26802  0.20138  1.0000
  H   H927      1.0  0.92816  0.41432  0.11505  1.0000
  H   H928      1.0  0.59133  0.36143  0.27646  1.0000
  S   S130      1.0  0.74131  0.24866  0.30750  1.0000
  H   H929      1.0  0.92077  0.24948  0.21980  1.0000
  Fe  Fe64      1.0  0.68706  0.15245  0.30081  1.0000
  C   C526      1.0  0.89790  0.45792  0.10563  1.0000
  H   H930      1.0  0.52575  0.19734  0.14032  1.0000
  H   H931      1.0  0.55904  0.46125  0.30810  1.0000
  C   C527      1.0  0.92926  0.40195  0.20404  1.0000
  H   H932      1.0  0.88639  0.19427  0.31148  1.0000
  H   H933      1.0  0.52448  0.04724  0.14145  1.0000
  S   S131      1.0  0.89024  0.43212  0.15164  1.0000
  Fe  Fe65      1.0  0.70176  0.23967  0.29136  1.0000
  H   H934      1.0  0.80090  0.41547  0.31472  1.0000
  C   C528      1.0  0.61064  0.09836  0.29187  1.0000
  Fe  Fe66      1.0  0.76630  0.20221  0.29868  1.0000
  H   H935      1.0  0.75255  0.42694  0.16172  1.0000
  C   C529      1.0  0.70568  0.43743  0.09838  1.0000
  H   H936      1.0  0.63389  0.28082  0.22750  1.0000
  C   C530      1.0  0.83386  0.45778  0.10069  1.0000
  H   H937      1.0  0.62014  0.36470  0.24474  1.0000
  C   C531      1.0  0.65032  0.20752  0.25677  1.0000
  H   H938      1.0  0.90830  0.37389  0.20953  1.0000
  C   C532      1.0  0.84190  0.40950  0.15971  1.0000
  S   S132      1.0  0.61475  0.41433  0.29447  1.0000
  C   C533      1.0  0.84685  0.39951  0.11720  1.0000
  H   H939      1.0  0.76009  0.45977  0.19061  1.0000
  H   H940      1.0  0.67227  0.41150  0.20470  1.0000
  H   H941      1.0  0.65581  0.05293  0.12059  1.0000
  Fe  Fe67      1.0  0.99458  0.36490  0.15933  1.0000
  S   S133      1.0  0.59484  0.41486  0.15177  1.0000
  C   C534      1.0  0.78676  0.39243  0.29553  1.0000
  C   C535      1.0  0.81444  0.46964  0.11567  1.0000
  S   S134      1.0  0.80305  0.42189  0.06062  1.0000
  H   H942      1.0  0.72098  0.45714  0.18073  1.0000
  C   C536      1.0  0.71996  0.40381  0.10118  1.0000
  C   C537      1.0  0.77441  0.41128  0.16362  1.0000
  N   N32       1.0  0.86283  0.43324  0.10296  1.0000
  C   C538      1.0  0.87269  0.41792  0.08843  1.0000
  C   C539      1.0  0.86272  0.44649  0.23090  1.0000
  C   C540      1.0  0.79292  0.38664  0.31241  1.0000
  H   H943      1.0  0.54112  0.04100  0.28093  1.0000
  H   H944      1.0  0.95306  0.12826  0.04434  1.0000
  H   H945      1.0  0.54901  0.11883  0.17996  1.0000
  H   H946      1.0  0.73265  0.40960  0.00768  1.0000
  S   S135      1.0  0.82982  0.33681  0.00137  1.0000
  C   C541      1.0  0.56752  0.37284  0.11959  1.0000
  H   H947      1.0  0.70674  0.46764  0.24256  1.0000
  H   H948      1.0  0.82119  0.46002  0.15132  1.0000
  Fe  Fe68      1.0  0.65460  0.41678  0.13827  1.0000
  C   C542      1.0  0.76370  0.42549  0.07490  1.0000
  H   H949      1.0  0.86815  0.38123  0.11840  1.0000
  H   H950      1.0  0.79617  0.41805  0.21184  1.0000
  C   C543      1.0  0.87195  0.17682  0.98797  1.0000
  S   S136      1.0  0.99079  0.31595  0.14735  1.0000
  H   H951      1.0  0.73763  0.44399  0.98926  1.0000
  H   H952      1.0  0.86516  0.27269  0.01454  1.0000
  C   C544      1.0  0.94133  0.47187  0.19915  1.0000
  Fe  Fe69      1.0  0.62265  0.42972  0.17086  1.0000
  H   H953      1.0  0.80832  0.41894  0.19102  1.0000
  H   H954      1.0  0.91769  0.25802  0.29691  1.0000
  H   H955      1.0  0.98129  0.24256  0.13635  1.0000
  C   C545      1.0  0.98551  0.24739  0.12329  1.0000
  H   H956      1.0  0.99149  0.41978  0.20185  1.0000
  C   C546      1.0  0.61668  0.35485  0.28009  1.0000
  H   H957      1.0  0.54263  0.38484  0.11712  1.0000
  H   H958      1.0  0.60524  0.31306  0.22050  1.0000
  H   H959      1.0  0.77885  0.14049  0.04292  1.0000
  H   H960      1.0  0.74353  0.45062  0.23056  1.0000
  C   C547      1.0  0.78644  0.23287  0.99366  1.0000
  H   H961      1.0  0.85557  0.37658  0.19653  1.0000
  H   H962      1.0  0.91868  0.32365  0.30041  1.0000
  H   H963      1.0  0.60537  0.15203  0.29794  1.0000
  H   H964      1.0  0.52553  0.47499  0.17533  1.0000
  C   C548      1.0  0.97163  0.33806  0.09174  1.0000
  H   H965      1.0  0.57464  0.05847  0.17975  1.0000
  H   H966      1.0  0.76019  0.46003  0.25536  1.0000
  H   H967      1.0  0.52925  0.03063  0.19217  1.0000
  C   C549      1.0  0.74973  0.45912  0.07233  1.0000
  C   C550      1.0  0.72030  0.46465  0.08386  1.0000
  H   H968      1.0  0.81067  0.44323  0.09597  1.0000
  S   S137      1.0  0.93961  0.47727  0.29944  1.0000
  C   C551      1.0  0.57209  0.45900  0.20018  1.0000
  C   C552      1.0  0.62155  0.30569  0.22963  1.0000
  H   H969      1.0  0.55796  0.06558  0.19939  1.0000
  C   C553      1.0  0.72626  0.41326  0.99577  1.0000
  C   C554      1.0  0.85778  0.44711  0.24835  1.0000
  C   C555      1.0  0.87812  0.43455  0.19903  1.0000
  C   C556      1.0  0.96603  0.30410  0.07100  1.0000
  H   H970      1.0  0.67290  0.34731  0.21636  1.0000
  H   H971      1.0  0.90501  0.23292  0.02909  1.0000
  C   C557      1.0  0.70578  0.46608  0.20446  1.0000
  H   H972      1.0  0.81207  0.41282  0.28699  1.0000
  H   H973      1.0  0.95306  0.20243  0.30493  1.0000
  H   H974      1.0  0.67166  0.39499  0.25351  1.0000
  H   H975      1.0  0.53236  0.16050  0.24379  1.0000
  H   H976      1.0  0.96364  0.40600  0.22186  1.0000
  C   C558      1.0  0.59424  0.46882  0.24950  1.0000
  H   H977      1.0  0.92968  0.16888  0.00556  1.0000
  C   C559      1.0  0.64905  0.02163  0.12627  1.0000
  H   H978      1.0  0.92296  0.44469  0.22922  1.0000
  C   C560      1.0  0.55458  0.12639  0.29156  1.0000
  H   H979      1.0  0.92962  0.41284  0.06279  1.0000
  C   C561      1.0  0.69006  0.40685  0.24131  1.0000
  H   H980      1.0  0.49888  0.11230  0.14119  1.0000
  H   H981      1.0  0.73399  0.35697  0.99421  1.0000
  H   H982      1.0  0.50536  0.31257  0.22964  1.0000
  H   H983      1.0  0.66157  0.47164  0.22984  1.0000
  C   C562      1.0  0.89384  0.44866  0.07285  1.0000
  C   C563      1.0  0.63687  0.37472  0.23218  1.0000
  H   H984      1.0  0.94264  0.16372  0.07631  1.0000
  C   C564      1.0  0.93398  0.44024  0.10515  1.0000
  C   C565      1.0  0.53325  0.40664  0.22205  1.0000
  C   C566      1.0  0.54724  0.48270  0.20432  1.0000
  H   H985      1.0  0.75250  0.40959  0.25518  1.0000
  H   H986      1.0  0.61829  0.01069  0.31001  1.0000
  S   S138      1.0  0.94692  0.47500  0.26155  1.0000
  C   C567      1.0  0.74533  0.38694  0.98684  1.0000
  H   H987      1.0  0.60157  0.29694  0.24160  1.0000
  S   S139      1.0  0.61022  0.47616  0.18329  1.0000
  H   H988      1.0  0.95663  0.12209  0.02445  1.0000
  C   C568      1.0  0.89866  0.43088  0.22478  1.0000
  C   C569      1.0  0.94644  0.31559  0.29630  1.0000
  C   C570      1.0  0.81683  0.49392  0.29652  1.0000
  H   H989      1.0  0.70868  0.02429  0.12711  1.0000
  H   H990      1.0  0.62500  0.44613  0.22296  1.0000
  C   C571      1.0  0.73478  0.47170  0.18872  1.0000
  Fe  Fe70      1.0  0.98543  0.47781  0.27829  1.0000
  H   H991      1.0  0.69449  0.40575  0.99738  1.0000
  C   C572      1.0  0.53261  0.14076  0.23571  1.0000
  H   H992      1.0  0.49881  0.01962  0.31416  1.0000
  H   H993      1.0  0.67494  0.24747  0.98865  1.0000
  H   H994      1.0  0.68190  0.47978  0.20181  1.0000
  H   H995      1.0  0.96896  0.26544  0.29532  1.0000
  C   C573      1.0  0.50989  0.30040  0.21906  1.0000
  C   C574      1.0  0.95223  0.19682  0.31782  1.0000
  H   H996      1.0  0.95562  0.32551  0.28319  1.0000
  H   H997      1.0  0.52009  0.16455  0.18517  1.0000
  H   H998      1.0  0.97944  0.29164  0.06182  1.0000
  H   H999      1.0  0.68762  0.03326  0.31083  1.0000
  H   H1000     1.0  0.57659  0.47164  0.24058  1.0000
  C   C575      1.0  0.98129  0.13905  0.31518  1.0000
  H   H1001     1.0  0.72017  0.48191  0.21192  1.0000
  H   H1002     1.0  0.96152  0.47692  0.11835  1.0000
  H   H1003     1.0  0.99380  0.45620  0.10602  1.0000
  H   H1004     1.0  0.69718  0.01205  0.10960  1.0000
  H   H1005     1.0  0.54390  0.47830  0.29025  1.0000
  H   H1006     1.0  0.83995  0.16985  0.99154  1.0000
  H   H1007     1.0  0.51054  0.31442  0.19452  1.0000
  H   H1008     1.0  0.76563  0.48353  0.10664  1.0000
  C   C576      1.0  0.98866  0.32269  0.07956  1.0000
  C   C577      1.0  0.74927  0.48356  0.30985  1.0000
  C   C578      1.0  0.50669  0.42923  0.22537  1.0000
  H   H1009     1.0  0.88020  0.47054  0.24957  1.0000
  H   H1010     1.0  0.84767  0.48482  0.09134  1.0000
  H   H1011     1.0  0.96874  0.33053  0.30135  1.0000
  H   H1012     1.0  0.57286  0.30941  0.31257  1.0000
  H   H1013     1.0  0.61488  0.29277  0.31616  1.0000
  H   H1014     1.0  0.52877  0.00295  0.11263  1.0000
  H   H1015     1.0  0.97535  0.49576  0.09700  1.0000
  H   H1016     1.0  0.98587  0.14740  0.30207  1.0000
  H   H1017     1.0  0.52057  0.00957  0.16895  1.0000
  H   H1018     1.0  0.50138  0.00371  0.13720  1.0000
  H   H1019     1.0  0.50455  0.41556  0.31599  1.0000
  H   H1020     1.0  0.82929  0.45302  0.25304  1.0000
  H   H1021     1.0  0.52288  0.22972  0.19146  1.0000
  H   H1022     1.0  0.83626  0.48434  0.12095  1.0000
  H   H1023     1.0  0.90650  0.48651  0.09694  1.0000
  H   H1024     1.0  0.49762  0.43580  0.28879  1.0000
  H   H1025     1.0  0.76991  0.48587  0.28507  1.0000
  C   C579      1.0  0.77794  0.48784  0.29606  1.0000
  H   H1026     1.0  0.95921  0.42366  0.35596  1.0000
  H   H1027     1.0  0.91619  0.26130  0.35031  1.0000
  H   H1028     1.0  0.70038  0.39349  0.47323  1.0000
  H   H1029     1.0  0.60618  0.20830  0.39689  1.0000
  H   H1030     1.0  0.96351  0.42303  0.62611  1.0000
  S   S140      1.0  0.63034  0.47700  0.32482  1.0000
  C   C580      1.0  0.60666  0.27965  0.41252  1.0000
  S   S141      1.0  0.61788  0.42761  0.36187  1.0000
  Fe  Fe71      1.0  0.58127  0.44870  0.34603  1.0000
  H   H1031     1.0  0.64618  0.30893  0.34298  1.0000
  H   H1032     1.0  0.97241  0.30083  0.61334  1.0000
  Fe  Fe72      1.0  0.80126  0.40231  0.56022  1.0000
  S   S142      1.0  0.84404  0.39012  0.54088  1.0000
  Fe  Fe73      1.0  0.74380  0.32771  0.56413  1.0000
  S   S143      1.0  0.78106  0.30830  0.54524  1.0000
  S   S144      1.0  0.68464  0.29455  0.57845  1.0000
  C   C581      1.0  0.70044  0.21360  0.37605  1.0000
  Fe  Fe74      1.0  0.79344  0.36973  0.53126  1.0000
  S   S145      1.0  0.79833  0.38864  0.50488  1.0000
  S   S146      1.0  0.75166  0.38753  0.54920  1.0000
  C   C582      1.0  0.67655  0.39764  0.63734  1.0000
  H   H1033     1.0  0.76989  0.30520  0.64430  1.0000
  H   H1034     1.0  0.56176  0.31120  0.46294  1.0000
  S   S147      1.0  0.90307  0.46840  0.62192  1.0000
  S   S148      1.0  0.92904  0.37084  0.32671  1.0000
  C   C583      1.0  0.92284  0.41438  0.55954  1.0000
  H   H1035     1.0  0.70793  0.18129  0.62987  1.0000
  C   C584      1.0  0.60918  0.31184  0.38545  1.0000
  H   H1036     1.0  0.56363  0.26427  0.39990  1.0000
  Fe  Fe75      1.0  0.72491  0.29986  0.42149  1.0000
  S   S149      1.0  0.76178  0.31174  0.39691  1.0000
  S   S150      1.0  0.66172  0.29841  0.42834  1.0000
  Fe  Fe76      1.0  0.78920  0.28649  0.43738  1.0000
  S   S151      1.0  0.83298  0.29693  0.41427  1.0000
  S   S152      1.0  0.79744  0.26757  0.46221  1.0000
  Fe  Fe77      1.0  0.80614  0.34619  0.40599  1.0000
  S   S153      1.0  0.83847  0.40304  0.38937  1.0000
  Fe  Fe78      1.0  0.78610  0.26192  0.40641  1.0000
  S   S154      1.0  0.79997  0.22240  0.39047  1.0000
  S   S155      1.0  0.76681  0.33925  0.42983  1.0000
  S   S156      1.0  0.74482  0.24634  0.43029  1.0000
  H   H1037     1.0  0.73681  0.37075  0.46543  1.0000
  H   H1038     1.0  0.70445  0.14552  0.60312  1.0000
  C   C585      1.0  0.72820  0.22046  0.38474  1.0000
  C   C586      1.0  0.76481  0.21362  0.37977  1.0000
  H   H1039     1.0  0.72099  0.27990  0.33876  1.0000
  H   H1040     1.0  0.67237  0.21929  0.37995  1.0000
  H   H1041     1.0  0.72110  0.23067  0.39538  1.0000
  H   H1042     1.0  0.57653  0.35301  0.47023  1.0000
  N   N33       1.0  0.68227  0.33126  0.47729  1.0000
  C   C587      1.0  0.61785  0.31617  0.46833  1.0000
  N   N34       1.0  0.92179  0.34542  0.59979  1.0000
  H   H1043     1.0  0.70914  0.00199  0.32314  1.0000
  S   S157      1.0  0.88603  0.16153  0.62841  1.0000
  C   C588      1.0  0.79192  0.21063  0.59130  1.0000
  H   H1044     1.0  0.97372  0.38587  0.59976  1.0000
  H   H1045     1.0  0.87671  0.27508  0.59972  1.0000
  H   H1046     1.0  0.78627  0.44835  0.36122  1.0000
  C   C589      1.0  0.71931  0.32709  0.35164  1.0000
  C   C590      1.0  0.90178  0.37972  0.34366  1.0000
  C   C591      1.0  0.89370  0.35214  0.35803  1.0000
  C   C592      1.0  0.87353  0.35907  0.37195  1.0000
  C   C593      1.0  0.86216  0.39400  0.37169  1.0000
  C   C594      1.0  0.86969  0.42149  0.35725  1.0000
  C   C595      1.0  0.88914  0.41417  0.34317  1.0000
  H   H1047     1.0  0.90316  0.32536  0.35845  1.0000
  H   H1048     1.0  0.86768  0.33764  0.38297  1.0000
  H   H1049     1.0  0.86028  0.44826  0.35698  1.0000
  H   H1050     1.0  0.89484  0.43536  0.33206  1.0000
  C   C596      1.0  0.79940  0.35473  0.49316  1.0000
  C   C597      1.0  0.80675  0.36763  0.47663  1.0000
  C   C598      1.0  0.80634  0.34114  0.46701  1.0000
  C   C599      1.0  0.79869  0.30157  0.47389  1.0000
  C   C600      1.0  0.79148  0.28864  0.49043  1.0000
  C   C601      1.0  0.79165  0.31515  0.50004  1.0000
  H   H1051     1.0  0.81268  0.39824  0.47123  1.0000
  H   H1052     1.0  0.81229  0.35140  0.45426  1.0000
  H   H1053     1.0  0.78490  0.25801  0.49583  1.0000
  H   H1054     1.0  0.78469  0.30498  0.51277  1.0000
  C   C602      1.0  0.69387  0.26309  0.62974  1.0000
  C   C603      1.0  0.65941  0.27099  0.62654  1.0000
  C   C604      1.0  0.65585  0.27977  0.61076  1.0000
  C   C605      1.0  0.68694  0.28103  0.59830  1.0000
  C   C606      1.0  0.72086  0.27260  0.60167  1.0000
  C   C607      1.0  0.72446  0.26398  0.61728  1.0000
  H   H1055     1.0  0.63573  0.27057  0.63614  1.0000
  H   H1056     1.0  0.62944  0.28628  0.60819  1.0000
  H   H1057     1.0  0.74423  0.27202  0.59221  1.0000
  H   H1058     1.0  0.75081  0.25723  0.61974  1.0000
  C   C608      1.0  0.90040  0.23060  0.35350  1.0000
  C   C609      1.0  0.53611  0.12461  0.34915  1.0000
  H   H1059     1.0  0.84689  0.17067  0.34727  1.0000
  H   H1060     1.0  0.78678  0.37750  0.36736  1.0000
  C   C610      1.0  0.87198  0.22699  0.58030  1.0000
  H   H1061     1.0  0.96351  0.38483  0.56813  1.0000
  C   C611      1.0  0.69703  0.38350  0.45074  1.0000
  H   H1062     1.0  0.80178  0.19471  0.36225  1.0000
  S   S158      1.0  0.87397  0.29564  0.55988  1.0000
  Fe  Fe79      1.0  0.69877  0.19838  0.32512  1.0000
  C   C612      1.0  0.83163  0.26237  0.62075  1.0000
  H   H1063     1.0  0.64366  0.41038  0.40077  1.0000
  C   C613      1.0  0.76164  0.42571  0.36912  1.0000
  H   H1064     1.0  0.87134  0.22960  0.35128  1.0000
  H   H1065     1.0  0.68196  0.40713  0.57894  1.0000
  C   C614      1.0  0.59064  0.28331  0.39930  1.0000
  H   H1066     1.0  0.82121  0.39738  0.59437  1.0000
  H   H1067     1.0  0.66898  0.19918  0.47718  1.0000
  S   S159      1.0  0.72395  0.48271  0.34119  1.0000
  H   H1068     1.0  0.69480  0.25239  0.48866  1.0000
  N   N35       1.0  0.64816  0.14288  0.61787  1.0000
  C   C615      1.0  0.70939  0.20099  0.36209  1.0000
  Fe  Fe80      1.0  0.82899  0.32977  0.55608  1.0000
  H   H1069     1.0  0.73839  0.40545  0.34416  1.0000
  C   C616      1.0  0.56769  0.17897  0.36680  1.0000
  H   H1070     1.0  0.69712  0.35156  0.61641  1.0000
  C   C617      1.0  0.97051  0.39424  0.62908  1.0000
  H   H1071     1.0  0.68466  0.30212  0.45802  1.0000
  H   H1072     1.0  0.71489  0.38243  0.49659  1.0000
  H   H1073     1.0  0.87107  0.13969  0.33782  1.0000
  H   H1074     1.0  0.70073  0.48937  0.38816  1.0000
  H   H1075     1.0  0.66760  0.31923  0.52597  1.0000
  H   H1076     1.0  0.66546  0.36143  0.59338  1.0000
  N   N36       1.0  0.75722  0.35304  0.34170  1.0000
  C   C618      1.0  0.63802  0.48714  0.39097  1.0000
  C   C619      1.0  0.79097  0.33586  0.34447  1.0000
  C   C620      1.0  0.79442  0.29901  0.33864  1.0000
  H   H1077     1.0  0.59728  0.14695  0.64612  1.0000
  C   C621      1.0  0.83336  0.28928  0.33917  1.0000
  C   C622      1.0  0.56823  0.19030  0.63732  1.0000
  H   H1078     1.0  0.53058  0.25799  0.33392  1.0000
  H   H1079     1.0  0.81851  0.35785  0.33916  1.0000
  H   H1080     1.0  0.78978  0.32764  0.35738  1.0000
  H   H1081     1.0  0.52836  0.11071  0.32693  1.0000
  H   H1082     1.0  0.77232  0.27436  0.34674  1.0000
  H   H1083     1.0  0.69503  0.42024  0.39868  1.0000
  H   H1084     1.0  0.60743  0.05682  0.59591  1.0000
  H   H1085     1.0  0.96035  0.19588  0.53392  1.0000
  H   H1086     1.0  0.59502  0.03068  0.61656  1.0000
  H   H1087     1.0  0.83802  0.28613  0.35135  1.0000
  H   H1088     1.0  0.91169  0.17610  0.34971  1.0000
  H   H1089     1.0  0.89805  0.42675  0.56396  1.0000
  H   H1090     1.0  0.58722  0.31263  0.33066  1.0000
  C   C623      1.0  0.94655  0.15247  0.32326  1.0000
  C   C624      1.0  0.94316  0.37543  0.60662  1.0000
  H   H1091     1.0  0.66744  0.42319  0.63124  1.0000
  H   H1092     1.0  0.73050  0.17547  0.57425  1.0000
  H   H1093     1.0  0.50459  0.11986  0.35392  1.0000
  C   C625      1.0  0.85655  0.16391  0.33569  1.0000
  H   H1094     1.0  0.81246  0.24133  0.61663  1.0000
  H   H1095     1.0  0.85698  0.31206  0.33069  1.0000
  H   H1096     1.0  0.72160  0.22184  0.57669  1.0000
  H   H1097     1.0  0.81607  0.33665  0.64148  1.0000
  C   C626      1.0  0.85074  0.25194  0.57374  1.0000
  H   H1098     1.0  0.91103  0.17274  0.54458  1.0000
  C   C627      1.0  0.58476  0.20805  0.37569  1.0000
  H   H1099     1.0  0.62407  0.31017  0.49220  1.0000
  C   C628      1.0  0.66338  0.12928  0.63219  1.0000
  H   H1100     1.0  0.64117  0.19858  0.62161  1.0000
  C   C629      1.0  0.83471  0.42538  0.59548  1.0000
  H   H1101     1.0  0.56695  0.13374  0.63336  1.0000
  C   C630      1.0  0.50005  0.22338  0.36883  1.0000
  H   H1102     1.0  0.97495  0.46472  0.32887  1.0000
  Fe  Fe81      1.0  0.66621  0.45088  0.33998  1.0000
  H   H1103     1.0  0.56460  0.17023  0.39952  1.0000
  C   C631      1.0  0.70542  0.37015  0.46718  1.0000
  H   H1104     1.0  0.61158  0.16720  0.38882  1.0000
  C   C632      1.0  0.94797  0.32122  0.59324  1.0000
  H   H1105     1.0  0.64002  0.10934  0.64199  1.0000
  C   C633      1.0  0.69379  0.32505  0.49295  1.0000
  C   C634      1.0  0.72651  0.42001  0.44082  1.0000
  H   H1106     1.0  0.93554  0.48325  0.34811  1.0000
  H   H1107     1.0  0.94222  0.38205  0.50237  1.0000
  H   H1108     1.0  0.75856  0.43262  0.64692  1.0000
  C   C635      1.0  0.89595  0.21535  0.37126  1.0000
  H   H1109     1.0  0.66143  0.27669  0.33126  1.0000
  C   C636      1.0  0.84987  0.49492  0.58651  1.0000
  S   S160      1.0  0.56772  0.39360  0.33859  1.0000
  H   H1110     1.0  0.81356  0.27713  0.62804  1.0000
  H   H1111     1.0  0.69639  0.19047  0.60604  1.0000
  S   S161      1.0  0.91831  0.06565  0.64585  1.0000
  H   H1112     1.0  0.95025  0.33595  0.62804  1.0000
  C   C637      1.0  0.85984  0.29142  0.60656  1.0000
  H   H1113     1.0  0.60521  0.23205  0.33918  1.0000
  C   C638      1.0  0.96574  0.43737  0.36553  1.0000
  H   H1114     1.0  0.66823  0.39066  0.45224  1.0000
  H   H1115     1.0  0.67784  0.40263  0.64926  1.0000
  H   H1116     1.0  0.54018  0.17878  0.64612  1.0000
  H   H1117     1.0  0.69783  0.36123  0.44386  1.0000
  C   C639      1.0  0.64193  0.30369  0.41174  1.0000
  H   H1118     1.0  0.54555  0.15540  0.37571  1.0000
  H   H1119     1.0  0.89437  0.34564  0.58012  1.0000
  H   H1120     1.0  0.68308  0.27060  0.35600  1.0000
  C   C640      1.0  0.70024  0.29319  0.34541  1.0000
  C   C641      1.0  0.68165  0.22878  0.46961  1.0000
  C   C642      1.0  0.77344  0.36556  0.63369  1.0000
  H   H1121     1.0  0.73254  0.37736  0.32294  1.0000
  H   H1122     1.0  0.94522  0.43775  0.55073  1.0000
  C   C643      1.0  0.94259  0.36404  0.62455  1.0000
  C   C644      1.0  0.74606  0.19421  0.35707  1.0000
  H   H1123     1.0  0.94197  0.20080  0.55372  1.0000
  H   H1124     1.0  0.65259  0.19332  0.58746  1.0000
  H   H1125     1.0  0.68389  0.32645  0.32499  1.0000
  C   C645      1.0  0.69759  0.40729  0.60136  1.0000
  H   H1126     1.0  0.59209  0.25771  0.42326  1.0000
  C   C646      1.0  0.68972  0.38710  0.58840  1.0000
  H   H1127     1.0  0.56575  0.22753  0.37860  1.0000
  C   C647      1.0  0.75957  0.48696  0.32399  1.0000
  H   H1128     1.0  0.88314  0.23501  0.37779  1.0000
  C   C648      1.0  0.71383  0.38189  0.61354  1.0000
  H   H1129     1.0  0.54906  0.11268  0.35886  1.0000
  C   C649      1.0  0.62343  0.17138  0.62059  1.0000
  H   H1130     1.0  0.66635  0.23380  0.45994  1.0000
  C   C650      1.0  0.74206  0.43475  0.62405  1.0000
  H   H1131     1.0  0.90302  0.23355  0.57621  1.0000
  N   N37       1.0  0.71574  0.39519  0.62851  1.0000
  H   H1132     1.0  0.71969  0.33279  0.51982  1.0000
  H   H1133     1.0  0.72534  0.44410  0.44679  1.0000
  C   C651      1.0  0.57658  0.32190  0.47159  1.0000
  H   H1134     1.0  0.77039  0.43484  0.61644  1.0000
  H   H1135     1.0  0.92111  0.13797  0.31977  1.0000
  H   H1136     1.0  0.79415  0.26188  0.57383  1.0000
  H   H1137     1.0  0.67605  0.29757  0.50116  1.0000
  H   H1138     1.0  0.61617  0.28498  0.46910  1.0000
  H   H1139     1.0  0.73423  0.43456  0.36845  1.0000
  H   H1140     1.0  0.50523  0.43253  0.33326  1.0000
  H   H1141     1.0  0.56083  0.23802  0.32048  1.0000
  H   H1142     1.0  0.56032  0.30553  0.48375  1.0000
  C   C652      1.0  0.64375  0.33696  0.38486  1.0000
  C   C653      1.0  0.67140  0.30240  0.33558  1.0000
  H   H1143     1.0  0.69279  0.36720  0.52534  1.0000
  H   H1144     1.0  0.61141  0.18001  0.61016  1.0000
  C   C654      1.0  0.81069  0.24308  0.57897  1.0000
  C   C655      1.0  0.67397  0.46933  0.38821  1.0000
  H   H1145     1.0  0.57742  0.25445  0.35160  1.0000
  H   H1146     1.0  0.84292  0.30596  0.59904  1.0000
  H   H1147     1.0  0.94287  0.14253  0.33623  1.0000
  H   H1148     1.0  0.84770  0.24625  0.62815  1.0000
  H   H1149     1.0  0.93917  0.44540  0.37125  1.0000
  H   H1150     1.0  0.98543  0.13334  0.60158  1.0000
  H   H1151     1.0  0.95310  0.21376  0.34492  1.0000
  C   C656      1.0  0.93956  0.39737  0.57317  1.0000
  H   H1152     1.0  0.72281  0.31359  0.36358  1.0000
  H   H1153     1.0  0.59190  0.16535  0.36272  1.0000
  H   H1154     1.0  0.56729  0.49358  0.40288  1.0000
  H   H1155     1.0  0.75613  0.41474  0.43892  1.0000
  H   H1156     1.0  0.71254  0.23066  0.46440  1.0000
  H   H1157     1.0  0.71367  0.33645  0.64050  1.0000
  C   C657      1.0  0.77355  0.20004  0.36604  1.0000
  H   H1158     1.0  0.60873  0.11767  0.60532  1.0000
  S   S162      1.0  0.53101  0.47257  0.35519  1.0000
  H   H1159     1.0  0.59780  0.39239  0.64517  1.0000
  C   C658      1.0  0.64611  0.07782  0.60986  1.0000
  H   H1160     1.0  0.88527  0.38077  0.59067  1.0000
  H   H1161     1.0  0.72013  0.42864  0.42903  1.0000
  N   N38       1.0  0.88811  0.26266  0.51389  1.0000
  C   C659      1.0  0.91187  0.23463  0.51925  1.0000
  C   C660      1.0  0.88697  0.26344  0.49688  1.0000
  C   C661      1.0  0.90877  0.30251  0.51413  1.0000
  C   C662      1.0  0.84796  0.25359  0.52448  1.0000
  C   C663      1.0  0.82837  0.21041  0.53208  1.0000
  C   C664      1.0  0.92128  0.23508  0.53558  1.0000
  C   C665      1.0  0.89007  0.33645  0.50833  1.0000
  C   C666      1.0  0.86814  0.22538  0.49335  1.0000
  C   C667      1.0  0.87675  0.22846  0.47548  1.0000
  C   C668      1.0  0.78636  0.20588  0.54061  1.0000
  C   C669      1.0  0.97500  0.40729  0.37808  1.0000
  C   C670      1.0  0.91258  0.37449  0.51009  1.0000
  H   H1162     1.0  0.93992  0.24047  0.51037  1.0000
  H   H1163     1.0  0.89765  0.20460  0.51979  1.0000
  H   H1164     1.0  0.87033  0.28443  0.49246  1.0000
  H   H1165     1.0  0.91676  0.27369  0.48912  1.0000
  H   H1166     1.0  0.93908  0.30934  0.50694  1.0000
  H   H1167     1.0  0.91066  0.30369  0.52640  1.0000
  H   H1168     1.0  0.84774  0.26759  0.53460  1.0000
  H   H1169     1.0  0.82851  0.26650  0.51787  1.0000
  H   H1170     1.0  0.84301  0.19784  0.54106  1.0000
  H   H1171     1.0  0.82891  0.19285  0.52322  1.0000
  C   C671      1.0  0.73038  0.36618  0.63917  1.0000
  H   H1172     1.0  0.89587  0.23703  0.54437  1.0000
  H   H1173     1.0  0.85994  0.33152  0.51533  1.0000
  H   H1174     1.0  0.89005  0.34064  0.49560  1.0000
  H   H1175     1.0  0.87856  0.20024  0.49876  1.0000
  H   H1176     1.0  0.83634  0.21970  0.49770  1.0000
  H   H1177     1.0  0.90780  0.22998  0.47073  1.0000
  H   H1178     1.0  0.85955  0.20277  0.47304  1.0000
  H   H1179     1.0  0.86908  0.25460  0.46914  1.0000
  H   H1180     1.0  0.77295  0.17486  0.54599  1.0000
  H   H1181     1.0  0.78471  0.22149  0.55023  1.0000
  H   H1182     1.0  0.76979  0.21736  0.53217  1.0000
  H   H1183     1.0  0.58613  0.21180  0.64176  1.0000
  C   C672      1.0  0.82051  0.14974  0.33017  1.0000
  C   C673      1.0  0.68334  0.16139  0.63900  1.0000
  H   H1184     1.0  0.91429  0.37248  0.52260  1.0000
  H   H1185     1.0  0.96804  0.38601  0.64207  1.0000
  H   H1186     1.0  0.89776  0.39798  0.50651  1.0000
  H   H1187     1.0  0.73498  0.36659  0.37247  1.0000
  C   C674      1.0  0.69347  0.30028  0.46937  1.0000
  H   H1188     1.0  0.78926  0.41085  0.34009  1.0000
  C   C675      1.0  0.77933  0.49021  0.63225  1.0000
  S   S163      1.0  0.66001  0.39554  0.33222  1.0000
  C   C676      1.0  0.50932  0.19462  0.35861  1.0000
  C   C677      1.0  0.79854  0.49360  0.32441  1.0000
  H   H1189     1.0  0.83374  0.26156  0.33578  1.0000
  H   H1190     1.0  0.66269  0.17819  0.64343  1.0000
  H   H1191     1.0  0.73017  0.45579  0.61655  1.0000
  Fe  Fe82      1.0  0.82143  0.14468  0.63440  1.0000
  N   N39       1.0  0.92237  0.21470  0.32631  1.0000
  H   H1192     1.0  0.65758  0.35980  0.37437  1.0000
  H   H1193     1.0  0.89511  0.30523  0.62241  1.0000
  H   H1194     1.0  0.86950  0.17567  0.59803  1.0000
  H   H1195     1.0  0.63420  0.35876  0.48137  1.0000
  H   H1196     1.0  0.93060  0.40156  0.60539  1.0000
  H   H1197     1.0  0.69717  0.34423  0.35399  1.0000
  H   H1198     1.0  0.76463  0.42260  0.38152  1.0000
  H   H1199     1.0  0.76125  0.20516  0.59583  1.0000
  C   C678      1.0  0.61924  0.04532  0.60608  1.0000
  C   C679      1.0  0.87018  0.49784  0.59831  1.0000
  H   H1200     1.0  0.80053  0.12567  0.33958  1.0000
  H   H1201     1.0  0.71899  0.43486  0.59546  1.0000
  C   C680      1.0  0.76158  0.39063  0.34682  1.0000
  H   H1202     1.0  0.74906  0.33525  0.32037  1.0000
  C   C681      1.0  0.66061  0.33224  0.39789  1.0000
  H   H1203     1.0  0.67029  0.41400  0.60694  1.0000
  S   S164      1.0  0.79084  0.34387  0.57630  1.0000
  S   S165      1.0  0.91656  0.24709  0.64676  1.0000
  C   C682      1.0  0.76105  0.38719  0.36464  1.0000
  H   H1204     1.0  0.65922  0.14726  0.58418  1.0000
  H   H1205     1.0  0.98738  0.24257  0.60594  1.0000
  H   H1206     1.0  0.66302  0.36640  0.50228  1.0000
  H   H1207     1.0  0.78007  0.35995  0.62172  1.0000
  H   H1208     1.0  0.72408  0.32171  0.49113  1.0000
  C   C683      1.0  0.67787  0.25824  0.47962  1.0000
  H   H1209     1.0  0.75308  0.18441  0.34635  1.0000
  H   H1210     1.0  0.68758  0.35115  0.39742  1.0000
  C   C684      1.0  0.69275  0.34303  0.51936  1.0000
  H   H1211     1.0  0.74307  0.38111  0.60702  1.0000
  C   C685      1.0  0.59214  0.18699  0.39118  1.0000
  H   H1212     1.0  0.91322  0.39167  0.55352  1.0000
  H   H1213     1.0  0.64719  0.25332  0.48591  1.0000
  H   H1214     1.0  0.60088  0.09274  0.62536  1.0000
  H   H1215     1.0  0.50388  0.21269  0.38093  1.0000
  H   H1216     1.0  0.63216  0.33169  0.45594  1.0000
  C   C686      1.0  0.57504  0.23411  0.34385  1.0000
  S   S166      1.0  0.67481  0.19531  0.35081  1.0000
  Fe  Fe83      1.0  0.60834  0.37448  0.35274  1.0000
  H   H1217     1.0  0.92436  0.21406  0.37396  1.0000
  N   N40       1.0  0.55134  0.19459  0.35301  1.0000
  C   C687      1.0  0.85309  0.19455  0.59281  1.0000
  C   C688      1.0  0.68161  0.01016  0.32189  1.0000
  C   C689      1.0  0.67250  0.17336  0.58755  1.0000
  H   H1218     1.0  0.58546  0.17043  0.33624  1.0000
  H   H1219     1.0  0.96651  0.25154  0.58910  1.0000
  S   S167      1.0  0.78861  0.14920  0.61527  1.0000
  H   H1220     1.0  0.57357  0.10433  0.33159  1.0000
  H   H1221     1.0  0.61272  0.22641  0.36820  1.0000
  H   H1222     1.0  0.85903  0.29270  0.64791  1.0000
  H   H1223     1.0  0.93592  0.30728  0.58458  1.0000
  C   C690      1.0  0.58547  0.29475  0.32188  1.0000
  C   C691      1.0  0.90814  0.36635  0.58618  1.0000
  H   H1224     1.0  0.65131  0.33520  0.64621  1.0000
  C   C692      1.0  0.92284  0.20709  0.34367  1.0000
  S   S168      1.0  0.80962  0.45651  0.56921  1.0000
  H   H1225     1.0  0.94982  0.38240  0.38285  1.0000
  C   C693      1.0  0.63949  0.32987  0.48044  1.0000
  C   C694      1.0  0.83286  0.45871  0.58480  1.0000
  C   C695      1.0  0.58840  0.15743  0.63508  1.0000
  C   C696      1.0  0.88662  0.32125  0.61213  1.0000
  H   H1226     1.0  0.67030  0.09061  0.59924  1.0000
  H   H1227     1.0  0.63743  0.35737  0.62878  1.0000
  H   H1228     1.0  0.70160  0.19946  0.56287  1.0000
  S   S169      1.0  0.58886  0.31536  0.36897  1.0000
  C   C697      1.0  0.68196  0.16285  0.60402  1.0000
  C   C698      1.0  0.81299  0.18682  0.59855  1.0000
  H   H1229     1.0  0.72544  0.30477  0.46588  1.0000
  H   H1230     1.0  0.86869  0.34012  0.61696  1.0000
  H   H1231     1.0  0.91329  0.36215  0.63181  1.0000
  C   C699      1.0  0.69053  0.35702  0.50216  1.0000
  C   C700      1.0  0.87262  0.46459  0.60884  1.0000
  C   C701      1.0  0.54229  0.10115  0.33666  1.0000
  C   C702      1.0  0.60650  0.36593  0.65060  1.0000
  H   H1232     1.0  0.95154  0.42154  0.57802  1.0000
  C   C703      1.0  0.70889  0.19369  0.57459  1.0000
  C   C704      1.0  0.62412  0.10838  0.61462  1.0000
  H   H1233     1.0  0.66519  0.43836  0.41291  1.0000
  H   H1234     1.0  0.97632  0.33981  0.58626  1.0000
  H   H1235     1.0  0.87644  0.18620  0.37556  1.0000
  C   C705      1.0  0.66900  0.43236  0.40096  1.0000
  H   H1236     1.0  0.62991  0.48697  0.40378  1.0000
  H   H1237     1.0  0.80529  0.17342  0.32759  1.0000
  H   H1238     1.0  0.67810  0.46157  0.37658  1.0000
  C   C706      1.0  0.74883  0.45239  0.63809  1.0000
  C   C707      1.0  0.98163  0.26555  0.59694  1.0000
  H   H1239     1.0  0.54090  0.17698  0.33187  1.0000
  H   H1240     1.0  0.79203  0.39339  0.63350  1.0000
  C   C708      1.0  0.55452  0.16817  0.34180  1.0000
  C   C709      1.0  0.85445  0.42837  0.60754  1.0000
  C   C710      1.0  0.56034  0.25444  0.32978  1.0000
  H   H1241     1.0  0.52927  0.07011  0.34219  1.0000
  H   H1242     1.0  0.68512  0.11200  0.62927  1.0000
  H   H1243     1.0  0.56246  0.20482  0.62602  1.0000
  C   C711      1.0  0.75595  0.36197  0.32448  1.0000
  Fe  Fe84      1.0  0.88093  0.10848  0.64726  1.0000
  H   H1244     1.0  0.65795  0.06458  0.61972  1.0000
  H   H1245     1.0  0.85668  0.40268  0.61557  1.0000
  H   H1246     1.0  0.71573  0.37779  0.58303  1.0000
  H   H1247     1.0  0.80797  0.48460  0.62759  1.0000
  H   H1248     1.0  0.92973  0.26783  0.61242  1.0000
  H   H1249     1.0  0.61434  0.46552  0.38918  1.0000
  H   H1250     1.0  0.54805  0.01266  0.32992  1.0000
  H   H1251     1.0  0.94486  0.26040  0.53435  1.0000
  H   H1252     1.0  0.67055  0.02166  0.33219  1.0000
  C   C712      1.0  0.95658  0.28870  0.60535  1.0000
  C   C713      1.0  0.93451  0.19883  0.54229  1.0000
  C   C714      1.0  0.78450  0.33409  0.64497  1.0000
  H   H1253     1.0  0.72181  0.45888  0.64420  1.0000
  C   C715      1.0  0.64364  0.36160  0.64017  1.0000
  H   H1254     1.0  0.63546  0.02359  0.60288  1.0000
  Fe  Fe85      1.0  0.87693  0.19082  0.64840  1.0000
  H   H1255     1.0  0.97821  0.12440  0.62276  1.0000
  S   S170      1.0  0.70005  0.25156  0.64905  1.0000
  H   H1256     1.0  0.72135  0.12839  0.64901  1.0000
  H   H1257     1.0  0.51842  0.25278  0.36364  1.0000
  H   H1258     1.0  0.79124  0.30164  0.32633  1.0000
  H   H1259     1.0  0.98106  0.41975  0.38805  1.0000
  Fe  Fe86      1.0  0.87484  0.45976  0.64779  1.0000
  H   H1260     1.0  0.86619  0.22296  0.32309  1.0000
  H   H1261     1.0  0.91200  0.27233  0.32469  1.0000
  C   C716      1.0  0.88319  0.20021  0.32348  1.0000
  H   H1262     1.0  0.96117  0.27014  0.32293  1.0000
  S   S171      1.0  0.81696  0.08868  0.65173  1.0000
  H   H1263     1.0  0.80659  0.49628  0.33532  1.0000
  H   H1264     1.0  0.72551  0.37054  0.65142  1.0000
  H   H1265     1.0  0.52046  0.49781  0.38604  1.0000
  H   H1266     1.0  0.97616  0.10711  0.31899  1.0000
  H   H1267     1.0  0.82830  0.13922  0.31927  1.0000
  C   C717      1.0  0.93444  0.25792  0.31955  1.0000
  H   H1268     1.0  0.98147  0.21049  0.31873  1.0000
  Fe  Fe87      1.0  0.62000  0.41966  0.31876  1.0000
  C   C718      1.0  0.66731  0.43096  0.68991  1.0000
  H   H1269     1.0  0.75469  0.33826  0.75363  1.0000
  H   H1270     1.0  0.91566  0.29639  0.69424  1.0000
  S   S172      1.0  0.85424  0.45280  0.82106  1.0000
  H   H1271     1.0  0.90676  0.43136  0.70244  1.0000
  H   H1272     1.0  0.50539  0.12800  0.73046  1.0000
  C   C719      1.0  0.87206  0.10305  0.84362  1.0000
  H   H1273     1.0  0.94843  0.12465  0.88027  1.0000
  H   H1274     1.0  0.95154  0.03200  0.87925  1.0000
  C   C720      1.0  0.98554  0.39821  0.79524  1.0000
  Fe  Fe88      1.0  0.65435  0.31403  0.80911  1.0000
  S   S173      1.0  0.67888  0.36615  0.78855  1.0000
  S   S174      1.0  0.78248  0.28386  0.93328  1.0000
  Fe  Fe89      1.0  0.79388  0.20809  0.90918  1.0000
  S   S175      1.0  0.78678  0.26686  0.89806  1.0000
  S   S176      1.0  0.79974  0.16697  0.89337  1.0000
  Fe  Fe90      1.0  0.82827  0.28744  0.91188  1.0000
  S   S177      1.0  0.87409  0.34207  0.90230  1.0000
  Fe  Fe91      1.0  0.74156  0.25852  0.92033  1.0000
  S   S178      1.0  0.68746  0.28105  0.92266  1.0000
  S   S179      1.0  0.83955  0.22931  0.92124  1.0000
  H   H1275     1.0  0.82746  0.18648  0.80718  1.0000
  S   S180      1.0  0.89252  0.27701  0.78970  1.0000
  C   C721      1.0  0.93854  0.35952  0.84513  1.0000
  C   C722      1.0  0.82686  0.27326  0.96878  1.0000
  C   C723      1.0  0.83644  0.30266  0.97645  1.0000
  H   H1276     1.0  0.87417  0.11514  0.70153  1.0000
  H   H1277     1.0  0.59061  0.32392  0.89700  1.0000
  H   H1278     1.0  0.83919  0.27747  0.95624  1.0000
  H   H1279     1.0  0.85613  0.32952  0.96979  1.0000
  S   S181      1.0  0.86420  0.34806  0.69359  1.0000
  C   C724      1.0  0.62928  0.30145  0.88140  1.0000
  C   C725      1.0  0.66161  0.28501  0.87968  1.0000
  C   C726      1.0  0.68061  0.27937  0.89212  1.0000
  C   C727      1.0  0.66637  0.28891  0.90640  1.0000
  C   C728      1.0  0.63373  0.30462  0.90809  1.0000
  H   H1280     1.0  0.67250  0.27768  0.86866  1.0000
  H   H1281     1.0  0.70621  0.26782  0.89067  1.0000
  H   H1282     1.0  0.77030  0.39259  0.88363  1.0000
  H   H1283     1.0  0.54677  0.14451  0.76822  1.0000
  C   C729      1.0  0.85612  0.22749  0.87489  1.0000
  C   C730      1.0  0.83126  0.19322  0.87526  1.0000
  C   C731      1.0  0.83160  0.18075  0.86122  1.0000
  C   C732      1.0  0.85719  0.20272  0.84686  1.0000
  H   H1284     1.0  0.85606  0.23745  0.88560  1.0000
  H   H1285     1.0  0.81179  0.15457  0.86140  1.0000
  H   H1286     1.0  0.85724  0.19361  0.83597  1.0000
  H   H1287     1.0  0.93563  0.33245  0.84098  1.0000
  C   C733      1.0  0.93375  0.17761  0.88362  1.0000
  C   C734      1.0  0.91456  0.27264  0.67383  1.0000
  C   C735      1.0  0.72331  0.43875  0.77758  1.0000
  C   C736      1.0  0.71547  0.40427  0.78923  1.0000
  C   C737      1.0  0.73822  0.40049  0.80030  1.0000
  C   C738      1.0  0.76933  0.43098  0.79939  1.0000
  H   H1288     1.0  0.73802  0.41908  0.71100  1.0000
  H   H1289     1.0  0.70591  0.44184  0.76899  1.0000
  H   H1290     1.0  0.73248  0.37382  0.80927  1.0000
  H   H1291     1.0  0.78756  0.42767  0.80761  1.0000
  C   C739      1.0  0.82482  0.43367  0.87483  1.0000
  C   C740      1.0  0.86348  0.44181  0.87552  1.0000
  C   C741      1.0  0.87785  0.41452  0.88492  1.0000
  C   C742      1.0  0.85412  0.37849  0.89303  1.0000
  C   C743      1.0  0.81502  0.37118  0.89297  1.0000
  C   C744      1.0  0.80034  0.39882  0.88394  1.0000
  S   S182      1.0  0.78446  0.09788  0.69573  1.0000
  H   H1292     1.0  0.90748  0.42092  0.88566  1.0000
  H   H1293     1.0  0.79605  0.34415  0.89974  1.0000
  S   S183      1.0  0.50384  0.18045  0.67938  1.0000
  N   N41       1.0  0.56514  0.20448  0.76866  1.0000
  C   C745      1.0  0.58930  0.19617  0.78045  1.0000
  C   C746      1.0  0.54545  0.23639  0.77211  1.0000
  C   C747      1.0  0.53397  0.16855  0.77135  1.0000
  C   C748      1.0  0.58821  0.21453  0.75165  1.0000
  C   C749      1.0  0.63065  0.23715  0.74823  1.0000
  H   H1294     1.0  0.80332  0.31686  0.82508  1.0000
  C   C750      1.0  0.61482  0.06455  0.69534  1.0000
  C   C751      1.0  0.57157  0.27540  0.77175  1.0000
  C   C752      1.0  0.54762  0.30241  0.77791  1.0000
  C   C753      1.0  0.64793  0.25266  0.73049  1.0000
  H   H1295     1.0  0.61435  0.22035  0.77852  1.0000
  H   H1296     1.0  0.52825  0.24390  0.76334  1.0000
  H   H1297     1.0  0.60788  0.40346  0.70099  1.0000
  H   H1298     1.0  0.58971  0.18793  0.74724  1.0000
  H   H1299     1.0  0.57324  0.23116  0.74377  1.0000
  H   H1300     1.0  0.64858  0.21791  0.75290  1.0000
  H   H1301     1.0  0.63350  0.26186  0.75375  1.0000
  H   H1302     1.0  0.61703  0.15607  0.76888  1.0000
  H   H1303     1.0  0.76471  0.32471  0.97867  1.0000
  H   H1304     1.0  0.51585  0.00598  0.75558  1.0000
  H   H1305     1.0  0.66341  0.45946  0.69074  1.0000
  H   H1306     1.0  0.58711  0.29031  0.75935  1.0000
  H   H1307     1.0  0.65773  0.38784  0.89724  1.0000
  H   H1308     1.0  0.83127  0.05483  0.71064  1.0000
  H   H1309     1.0  0.67768  0.26989  0.72835  1.0000
  H   H1310     1.0  0.64878  0.22817  0.72479  1.0000
  H   H1311     1.0  0.63066  0.27160  0.72508  1.0000
  S   S184      1.0  0.63083  0.14664  0.72202  1.0000
  H   H1312     1.0  0.97196  0.15740  0.75567  1.0000
  H   H1313     1.0  0.62256  0.31196  0.91909  1.0000
  H   H1314     1.0  0.89645  0.30644  0.74603  1.0000
  S   S185      1.0  0.68029  0.29804  0.82972  1.0000
  C   C754      1.0  0.93631  0.17354  0.69360  1.0000
  C   C755      1.0  0.66302  0.41972  0.89312  1.0000
  H   H1315     1.0  0.86578  0.32309  0.84295  1.0000
  Fe  Fe92      1.0  0.56221  0.20492  0.68287  1.0000
  S   S186      1.0  0.56633  0.21345  0.70694  1.0000
  H   H1316     1.0  0.87677  0.31290  0.72876  1.0000
  C   C756      1.0  0.72443  0.13269  0.69218  1.0000
  C   C757      1.0  0.84684  0.03797  0.74320  1.0000
  H   H1317     1.0  0.73949  0.14375  0.67985  1.0000
  H   H1318     1.0  0.61042  0.36736  0.66262  1.0000
  H   H1319     1.0  0.79640  0.30878  0.72145  1.0000
  C   C758      1.0  0.91833  0.00578  0.72330  1.0000
  C   C759      1.0  0.86156  0.31773  0.66785  1.0000
  C   C760      1.0  0.53989  0.03161  0.74984  1.0000
  H   H1320     1.0  0.70547  0.05657  0.91898  1.0000
  H   H1321     1.0  0.98581  0.26198  0.88161  1.0000
  C   C761      1.0  0.97529  0.43715  0.84916  1.0000
  C   C762      1.0  0.70907  0.16043  0.75456  1.0000
  C   C763      1.0  0.96492  0.10888  0.65976  1.0000
  H   H1322     1.0  0.52464  0.22617  0.78397  1.0000
  C   C764      1.0  0.96366  0.38705  0.77209  1.0000
  C   C765      1.0  0.67687  0.35724  0.68769  1.0000
  C   C766      1.0  0.70375  0.42576  0.68336  1.0000
  C   C767      1.0  0.87737  0.31869  0.68095  1.0000
  C   C768      1.0  0.72031  0.09422  0.71836  1.0000
  C   C769      1.0  0.97337  0.39794  0.86051  1.0000
  N   N42       1.0  0.75673  0.36832  0.95975  1.0000
  C   C770      1.0  0.73989  0.36937  0.94545  1.0000
  C   C771      1.0  0.75076  0.32679  0.96854  1.0000
  H   H1323     1.0  0.99675  0.09860  0.76031  1.0000
  C   C772      1.0  0.79939  0.38634  0.95502  1.0000
  C   C773      1.0  0.82422  0.37170  0.94207  1.0000
  H   H1324     1.0  0.97999  0.00725  0.71693  1.0000
  C   C774      1.0  0.98160  0.07072  0.81127  1.0000
  H   H1325     1.0  0.69510  0.30033  0.96463  1.0000
  H   H1326     1.0  0.86244  0.09620  0.82068  1.0000
  C   C775      1.0  0.86609  0.39432  0.93750  1.0000
  C   C776      1.0  0.94090  0.08823  0.85438  1.0000
  H   H1327     1.0  0.81384  0.17795  0.72394  1.0000
  H   H1328     1.0  0.70796  0.35935  0.94919  1.0000
  H   H1329     1.0  0.74963  0.34852  0.93876  1.0000
  Fe  Fe93      1.0  0.85726  0.40429  0.67969  1.0000
  H   H1330     1.0  0.85614  0.11136  0.85396  1.0000
  S   S187      1.0  0.52536  0.22280  0.81797  1.0000
  H   H1331     1.0  0.75911  0.26532  0.67756  1.0000
  H   H1332     1.0  0.80454  0.41830  0.95093  1.0000
  H   H1333     1.0  0.81208  0.38125  0.96551  1.0000
  H   H1334     1.0  0.81374  0.37458  0.93106  1.0000
  H   H1335     1.0  0.82423  0.34099  0.94648  1.0000
  C   C777      1.0  0.94959  0.15334  0.87268  1.0000
  H   H1336     1.0  0.68888  0.40652  0.72240  1.0000
  H   H1337     1.0  0.51914  0.15833  0.78415  1.0000
  C   C778      1.0  0.53791  0.14911  0.82223  1.0000
  C   C779      1.0  0.85059  0.44509  0.75559  1.0000
  S   S188      1.0  0.90952  0.45040  0.66612  1.0000
  H   H1338     1.0  0.87864  0.46377  0.75522  1.0000
  H   H1339     1.0  0.90319  0.16420  0.88992  1.0000
  C   C780      1.0  0.98857  0.04508  0.67490  1.0000
  H   H1340     1.0  0.87853  0.39208  0.94805  1.0000
  H   H1341     1.0  0.88346  0.38235  0.92868  1.0000
  H   H1342     1.0  0.86803  0.42518  0.93205  1.0000
  C   C781      1.0  0.97955  0.15193  0.83766  1.0000
  H   H1343     1.0  0.52677  0.30823  0.77059  1.0000
  H   H1344     1.0  0.60245  0.05509  0.68586  1.0000
  C   C782      1.0  0.89885  0.27180  0.66066  1.0000
  H   H1345     1.0  0.68066  0.32889  0.68675  1.0000
  H   H1346     1.0  0.59640  0.09787  0.86818  1.0000
  N   N43       1.0  0.69359  0.42855  0.84743  1.0000
  C   C783      1.0  0.66919  0.41197  0.83735  1.0000
  C   C784      1.0  0.72773  0.41004  0.84701  1.0000
  C   C785      1.0  0.66901  0.42026  0.86409  1.0000
  C   C786      1.0  0.70827  0.47160  0.84128  1.0000
  H   H1347     1.0  0.59949  0.05993  0.72031  1.0000
  C   C787      1.0  0.63783  0.43364  0.83324  1.0000
  C   C788      1.0  0.68969  0.43343  0.87649  1.0000
  C   C789      1.0  0.71874  0.36682  0.85571  1.0000
  C   C790      1.0  0.75487  0.35051  0.85321  1.0000
  C   C791      1.0  0.95466  0.08580  0.80411  1.0000
  C   C792      1.0  0.61284  0.41208  0.82436  1.0000
  H   H1348     1.0  0.65419  0.38153  0.84332  1.0000
  H   H1349     1.0  0.68741  0.41019  0.82599  1.0000
  H   H1350     1.0  0.74286  0.41252  0.83453  1.0000
  H   H1351     1.0  0.74957  0.42573  0.85201  1.0000
  H   H1352     1.0  0.65525  0.38892  0.86856  1.0000
  H   H1353     1.0  0.64448  0.43477  0.86424  1.0000
  H   H1354     1.0  0.56329  0.02185  0.74280  1.0000
  H   H1355     1.0  0.72760  0.48294  0.84843  1.0000
  H   H1356     1.0  0.89750  0.38706  0.85817  1.0000
  Fe  Fe94      1.0  0.94908  0.29727  0.77197  1.0000
  H   H1357     1.0  0.61845  0.43654  0.84407  1.0000
  H   H1358     1.0  0.65110  0.46294  0.82551  1.0000
  H   H1359     1.0  0.69807  0.46540  0.87379  1.0000
  H   H1360     1.0  0.71597  0.42200  0.87680  1.0000
  H   H1361     1.0  0.70802  0.36284  0.86868  1.0000
  H   H1362     1.0  0.69676  0.34961  0.85129  1.0000
  H   H1363     1.0  0.76625  0.35266  0.84041  1.0000
  H   H1364     1.0  0.77732  0.36664  0.85781  1.0000
  H   H1365     1.0  0.74789  0.31966  0.85970  1.0000
  H   H1366     1.0  0.75897  0.49593  0.76802  1.0000
  H   H1367     1.0  0.85301  0.27369  0.74579  1.0000
  H   H1368     1.0  0.70497  0.38262  0.97181  1.0000
  H   H1369     1.0  0.88952  0.33613  0.86628  1.0000
  Fe  Fe95      1.0  0.60571  0.27031  0.69369  1.0000
  H   H1370     1.0  0.59218  0.42920  0.82069  1.0000
  C   C793      1.0  0.85596  0.04033  0.70985  1.0000
  H   H1371     1.0  0.93593  0.25612  0.67588  1.0000
  H   H1372     1.0  0.71392  0.20089  0.89150  1.0000
  H   H1373     1.0  0.71555  0.17120  0.86119  1.0000
  S   S189      1.0  0.91363  0.19270  0.79882  1.0000
  C   C794      1.0  0.52520  0.06317  0.73959  1.0000
  Fe  Fe96      1.0  0.91741  0.48026  0.81526  1.0000
  H   H1374     1.0  0.67353  0.20473  0.91277  1.0000
  H   H1375     1.0  0.68194  0.20936  0.87914  1.0000
  H   H1376     1.0  0.89598  0.13191  0.86757  1.0000
  C   C795      1.0  0.51314  0.17320  0.81860  1.0000
  H   H1377     1.0  0.93813  0.32514  0.87567  1.0000
  H   H1378     1.0  0.74859  0.16823  0.87366  1.0000
  H   H1379     1.0  0.72891  0.10835  0.88505  1.0000
  H   H1380     1.0  0.79132  0.25076  0.66290  1.0000
  C   C796      1.0  0.98322  0.19507  0.82981  1.0000
  H   H1381     1.0  0.84400  0.13489  0.82737  1.0000
  H   H1382     1.0  0.92237  0.13941  0.71746  1.0000
  S   S190      1.0  0.96683  0.02675  0.82548  1.0000
  C   C797      1.0  0.74421  0.17714  0.74060  1.0000
  C   C798      1.0  0.98790  0.28629  0.88753  1.0000
  H   H1383     1.0  0.96394  0.19849  0.82164  1.0000
  H   H1384     1.0  0.86255  0.09631  0.72981  1.0000
  H   H1385     1.0  0.54215  0.06987  0.69934  1.0000
  C   C799      1.0  0.52799  0.11616  0.67308  1.0000
  H   H1386     1.0  0.87334  0.05815  0.68357  1.0000
  S   S191      1.0  0.60607  0.31225  0.86597  1.0000
  S   S192      1.0  0.96753  0.45248  0.81068  1.0000
  C   C800      1.0  0.60446  0.15861  0.78100  1.0000
  S   S193      1.0  0.78791  0.20202  0.96771  1.0000
  H   H1387     1.0  0.91728  0.00751  0.73575  1.0000
  C   C801      1.0  0.63591  0.39932  0.69571  1.0000
  Fe  Fe97      1.0  0.66067  0.23732  0.82774  1.0000
  H   H1388     1.0  0.73689  0.38476  0.67728  1.0000
  Fe  Fe98      1.0  0.80188  0.45476  0.67214  1.0000
  C   C802      1.0  0.64051  0.36243  0.69459  1.0000
  H   H1389     1.0  0.77450  0.22224  0.85033  1.0000
  H   H1390     1.0  0.73348  0.24293  0.85525  1.0000
  C   C803      1.0  0.83263  0.20647  0.71759  1.0000
  Fe  Fe99      1.0  0.92381  0.24865  0.80617  1.0000
  H   H1391     1.0  0.62502  0.20359  0.93657  1.0000
  C   C804      1.0  0.92381  0.04677  0.71275  1.0000
  S   S194      1.0  0.92030  0.26159  0.83013  1.0000
  H   H1392     1.0  0.76982  0.18042  0.70858  1.0000
  H   H1393     1.0  0.73517  0.20499  0.70329  1.0000
  C   C805      1.0  0.74143  0.21675  0.73098  1.0000
  S   S195      1.0  0.74242  0.46604  0.67691  1.0000
  S   S196      1.0  0.82964  0.44344  0.69245  1.0000
  N   N44       1.0  0.80352  0.33636  0.77550  1.0000
  C   C806      1.0  0.80745  0.37782  0.76707  1.0000
  C   C807      1.0  0.76293  0.31418  0.77739  1.0000
  C   C808      1.0  0.80956  0.33602  0.79197  1.0000
  C   C809      1.0  0.83291  0.31776  0.76710  1.0000
  C   C810      1.0  0.84518  0.33037  0.74866  1.0000
  C   C811      1.0  0.84529  0.40580  0.76684  1.0000
  C   C812      1.0  0.79953  0.29594  0.80387  1.0000
  C   C813      1.0  0.75036  0.30990  0.76203  1.0000
  S   S197      1.0  0.80694  0.46643  0.86245  1.0000
  C   C814      1.0  0.76576  0.20981  0.70414  1.0000
  C   C815      1.0  0.81620  0.29762  0.81835  1.0000
  H   H1394     1.0  0.78320  0.38928  0.77270  1.0000
  H   H1395     1.0  0.80486  0.38039  0.75467  1.0000
  H   H1396     1.0  0.75858  0.28412  0.78435  1.0000
  H   H1397     1.0  0.74199  0.32725  0.78436  1.0000
  H   H1398     1.0  0.79230  0.35429  0.79763  1.0000
  H   H1399     1.0  0.84020  0.34906  0.79127  1.0000
  H   H1400     1.0  0.86040  0.32433  0.77076  1.0000
  H   H1401     1.0  0.82294  0.28575  0.77078  1.0000
  H   H1402     1.0  0.86327  0.36010  0.74471  1.0000
  H   H1403     1.0  0.82057  0.33037  0.74310  1.0000
  H   H1404     1.0  0.84480  0.41093  0.77883  1.0000
  H   H1405     1.0  0.87063  0.39366  0.76322  1.0000
  H   H1406     1.0  0.81077  0.27434  0.79818  1.0000
  H   H1407     1.0  0.76776  0.28568  0.80831  1.0000
  H   H1408     1.0  0.93229  0.46233  0.78390  1.0000
  H   H1409     1.0  0.76663  0.29110  0.75632  1.0000
  C   C816      1.0  0.65121  0.12864  0.88287  1.0000
  C   C817      1.0  0.71864  0.42156  0.72195  1.0000
  H   H1410     1.0  0.71215  0.21359  0.72861  1.0000
  C   C818      1.0  0.96388  0.46148  0.71731  1.0000
  H   H1411     1.0  0.56237  0.10230  0.70944  1.0000
  S   S198      1.0  0.61271  0.17694  0.67959  1.0000
  S   S199      1.0  0.82453  0.41080  0.66068  1.0000
  H   H1412     1.0  0.80964  0.26823  0.82625  1.0000
  H   H1413     1.0  0.84801  0.30822  0.81479  1.0000
  S   S200      1.0  0.81242  0.17808  0.65320  1.0000
  H   H1414     1.0  0.74554  0.15565  0.73336  1.0000
  C   C819      1.0  0.88321  0.23620  0.84678  1.0000
  C   C820      1.0  0.87177  0.29378  0.65787  1.0000
  H   H1415     1.0  0.66731  0.10754  0.91451  1.0000
  Fe  Fe100     1.0  0.78969  0.22401  0.94174  1.0000
  S   S201      1.0  0.74455  0.19759  0.93048  1.0000
  C   C821      1.0  0.90031  0.10325  0.70228  1.0000
  S   S202      1.0  0.59547  0.30903  0.82402  1.0000
  C   C822      1.0  0.61555  0.31124  0.89561  1.0000
  H   H1416     1.0  0.83894  0.35168  0.85327  1.0000
  C   C823      1.0  0.77009  0.18955  0.81821  1.0000
  H   H1417     1.0  0.74961  0.09312  0.91076  1.0000
  H   H1418     1.0  0.71315  0.16832  0.65745  1.0000
  Fe  Fe101     1.0  0.62034  0.28846  0.84454  1.0000
  C   C824      1.0  0.88194  0.24868  0.86075  1.0000
  H   H1419     1.0  0.85523  0.00991  0.74396  1.0000
  H   H1420     1.0  0.77432  0.18279  0.83012  1.0000
  C   C825      1.0  0.80010  0.19147  0.80525  1.0000
  H   H1421     1.0  0.63506  0.42828  0.89329  1.0000
  H   H1422     1.0  0.71207  0.13252  0.76153  1.0000
  C   C826      1.0  0.88369  0.18769  0.96984  1.0000
  H   H1423     1.0  0.68233  0.15516  0.75024  1.0000
  S   S203      1.0  0.64003  0.25381  0.80561  1.0000
  H   H1424     1.0  0.57253  0.19416  0.79260  1.0000
  H   H1425     1.0  0.87514  0.21477  0.96503  1.0000
  Fe  Fe102     1.0  0.58296  0.24725  0.82250  1.0000
  H   H1426     1.0  0.95632  0.13372  0.65369  1.0000
  C   C827      1.0  0.94614  0.41855  0.77187  1.0000
  H   H1427     1.0  0.67668  0.43300  0.90148  1.0000
  S   S204      1.0  0.83262  0.20348  0.77368  1.0000
  C   C828      1.0  0.97869  0.08005  0.85864  1.0000
  H   H1428     1.0  0.70668  0.18051  0.76247  1.0000
  H   H1429     1.0  0.58054  0.13295  0.78687  1.0000
  S   S205      1.0  0.60258  0.22619  0.84448  1.0000
  H   H1430     1.0  0.59244  0.27185  0.77921  1.0000
  H   H1431     1.0  0.56386  0.02281  0.77054  1.0000
  H   H1432     1.0  0.70958  0.47645  0.71125  1.0000
  H   H1433     1.0  0.73517  0.26984  0.70610  1.0000
  H   H1434     1.0  0.81985  0.02285  0.76842  1.0000
  C   C829      1.0  0.73237  0.48542  0.82386  1.0000
  C   C830      1.0  0.79455  0.19956  0.78987  1.0000
  H   H1435     1.0  0.86961  0.04828  0.76340  1.0000
  C   C831      1.0  0.72846  0.18494  0.86954  1.0000
  H   H1436     1.0  0.95646  0.48143  0.70759  1.0000
  H   H1437     1.0  0.90107  0.27482  0.86071  1.0000
  S   S206      1.0  0.94240  0.24592  0.76146  1.0000
  C   C832      1.0  0.73500  0.19725  0.81576  1.0000
  H   H1438     1.0  0.63103  0.10147  0.89036  1.0000
  N   N45       1.0  0.94014  0.12980  0.84759  1.0000
  C   C833      1.0  0.89814  0.35903  0.85511  1.0000
  S   S207      1.0  0.60037  0.32356  0.70229  1.0000
  C   C834      1.0  0.86738  0.35165  0.84588  1.0000
  C   C835      1.0  0.72959  0.20587  0.80037  1.0000
  H   H1439     1.0  0.94793  0.06511  0.71573  1.0000
  C   C836      1.0  0.68615  0.10507  0.72427  1.0000
  H   H1440     1.0  0.82737  0.45919  0.75997  1.0000
  C   C837      1.0  0.61580  0.19118  0.92705  1.0000
  H   H1441     1.0  0.95189  0.01201  0.66365  1.0000
  H   H1442     1.0  0.69960  0.28747  0.75441  1.0000
  Fe  Fe103     1.0  0.88765  0.22384  0.78047  1.0000
  H   H1443     1.0  0.87382  0.37454  0.83473  1.0000
  H   H1444     1.0  0.68938  0.30723  0.77139  1.0000
  Fe  Fe104     1.0  0.61926  0.18981  0.70268  1.0000
  H   H1445     1.0  0.90217  0.07901  0.73528  1.0000
  Fe  Fe105     1.0  0.81434  0.12356  0.66999  1.0000
  H   H1446     1.0  0.93140  0.42677  0.76271  1.0000
  H   H1447     1.0  0.93612  0.07061  0.84570  1.0000
  S   S208      1.0  0.69825  0.19560  0.83211  1.0000
  H   H1448     1.0  0.69914  0.39598  0.92329  1.0000
  N   N46       1.0  0.88906  0.06443  0.71408  1.0000
  C   C838      1.0  0.98375  0.37728  0.78366  1.0000
  C   C839      1.0  0.70775  0.29008  0.76562  1.0000
  H   H1449     1.0  0.59609  0.38387  0.83223  1.0000
  C   C840      1.0  0.69769  0.18763  0.88378  1.0000
  H   H1450     1.0  0.94779  0.39878  0.72752  1.0000
  N   N47       1.0  0.77165  0.23457  0.71564  1.0000
  H   H1451     1.0  0.94482  0.38288  0.83414  1.0000
  C   C841      1.0  0.76767  0.30379  0.71872  1.0000
  C   C842      1.0  0.70869  0.38888  0.68229  1.0000
  H   H1452     1.0  0.71122  0.14305  0.90759  1.0000
  H   H1453     1.0  0.89559  0.38339  0.71511  1.0000
  H   H1454     1.0  0.63090  0.40719  0.81357  1.0000
  H   H1455     1.0  0.98951  0.09890  0.86594  1.0000
  H   H1456     1.0  0.97997  0.16794  0.86680  1.0000
  C   C843      1.0  0.75915  0.20632  0.78741  1.0000
  C   C844      1.0  0.77692  0.46552  0.78768  1.0000
  C   C845      1.0  0.55488  0.04631  0.76301  1.0000
  H   H1457     1.0  0.51722  0.13690  0.70921  1.0000
  H   H1458     1.0  0.76683  0.23988  0.86802  1.0000
  H   H1459     1.0  0.95094  0.17978  0.89260  1.0000
  C   C846      1.0  0.75216  0.22508  0.86028  1.0000
  C   C847      1.0  0.86930  0.30419  0.74193  1.0000
  S   S209      1.0  0.59659  0.26455  0.66992  1.0000
  H   H1460     1.0  0.94814  0.43710  0.84524  1.0000
  H   H1461     1.0  0.94849  0.39267  0.87085  1.0000
  C   C848      1.0  0.90329  0.29555  0.68413  1.0000
  C   C849      1.0  0.94685  0.43878  0.78379  1.0000
  H   H1462     1.0  0.70208  0.26069  0.77347  1.0000
  C   C850      1.0  0.96640  0.42834  0.79553  1.0000
  C   C851      1.0  0.68876  0.12510  0.90350  1.0000
  H   H1463     1.0  0.75503  0.21292  0.77550  1.0000
  H   H1464     1.0  0.70251  0.21177  0.79853  1.0000
  H   H1465     1.0  0.56396  0.16041  0.82555  1.0000
  H   H1466     1.0  0.84088  0.33484  0.66561  1.0000
  S   S210      1.0  0.65926  0.24738  0.69159  1.0000
  C   C852      1.0  0.67155  0.13044  0.71422  1.0000
  H   H1467     1.0  0.94507  0.13311  0.78752  1.0000
  H   H1468     1.0  0.60625  0.21367  0.91922  1.0000
  H   H1469     1.0  0.59123  0.16603  0.93262  1.0000
  H   H1470     1.0  0.67575  0.12490  0.66269  1.0000
  H   H1471     1.0  0.54682  0.09095  0.73702  1.0000
  C   C853      1.0  0.70724  0.09491  0.89635  1.0000
  N   N48       1.0  0.66959  0.15062  0.89327  1.0000
  C   C854      1.0  0.64958  0.17892  0.91761  1.0000
  H   H1472     1.0  0.74256  0.23562  0.73937  1.0000
  H   H1473     1.0  0.72744  0.40706  0.73250  1.0000
  H   H1474     1.0  0.64635  0.17841  0.86504  1.0000
  H   H1475     1.0  0.54673  0.06622  0.66751  1.0000
  H   H1476     1.0  0.67155  0.09447  0.73669  1.0000
  H   H1477     1.0  0.62515  0.18305  0.89729  1.0000
  H   H1478     1.0  0.96588  0.41153  0.70632  1.0000
  C   C855      1.0  0.72686  0.07296  0.90783  1.0000
  H   H1479     1.0  0.65894  0.15776  0.92609  1.0000
  H   H1480     1.0  0.96287  0.01805  0.86065  1.0000
  C   C856      1.0  0.63777  0.16141  0.90416  1.0000
  H   H1481     1.0  0.67310  0.11929  0.87474  1.0000
  H   H1482     1.0  0.94646  0.17118  0.68123  1.0000
  C   C857      1.0  0.62834  0.15025  0.87242  1.0000
  H   H1483     1.0  0.63996  0.12196  0.85298  1.0000
  C   C858      1.0  0.92504  0.14859  0.86052  1.0000
  C   C859      1.0  0.50249  0.17195  0.76190  1.0000
  H   H1484     1.0  0.95937  0.30143  0.86179  1.0000
  H   H1485     1.0  0.60224  0.15544  0.87984  1.0000
  H   H1486     1.0  0.61368  0.13568  0.90989  1.0000
  C   C860      1.0  0.61483  0.12638  0.86130  1.0000
  H   H1487     1.0  0.77008  0.18056  0.74556  1.0000
  C   C861      1.0  0.52223  0.07868  0.67078  1.0000
  H   H1488     1.0  0.59772  0.14174  0.85417  1.0000
  C   C862      1.0  0.90721  0.41426  0.71426  1.0000
  H   H1489     1.0  0.55672  0.13231  0.67146  1.0000
  H   H1490     1.0  0.88837  0.42332  0.72360  1.0000
  H   H1491     1.0  0.87355  0.07241  0.84744  1.0000
  C   C863      1.0  0.73102  0.40579  0.91943  1.0000
  C   C864      1.0  0.96587  0.12178  0.79318  1.0000
  C   C865      1.0  0.58489  0.05147  0.71123  1.0000
  H   H1492     1.0  0.76075  0.47742  0.82297  1.0000
  C   C866      1.0  0.96467  0.32768  0.86640  1.0000
  H   H1493     1.0  0.72174  0.24704  0.97731  1.0000
  C   C867      1.0  0.96309  0.04042  0.66511  1.0000
  H   H1494     1.0  0.74527  0.29473  0.72996  1.0000
  C   C868      1.0  0.70824  0.30387  0.97471  1.0000
  C   C869      1.0  0.80140  0.23850  0.97731  1.0000
  C   C870      1.0  0.81169  0.24013  0.71853  1.0000
  Fe  Fe106     1.0  0.64741  0.23719  0.66880  1.0000
  H   H1495     1.0  0.91659  0.07517  0.86504  1.0000
  C   C871      1.0  0.98615  0.16314  0.74287  1.0000
  N   N49       1.0  0.97127  0.36353  0.85329  1.0000
  H   H1496     1.0  0.58021  0.07094  0.75786  1.0000
  H   H1497     1.0  0.74719  0.21775  0.67417  1.0000
  H   H1498     1.0  0.76552  0.31053  0.96086  1.0000
  H   H1499     1.0  0.54915  0.09224  0.82370  1.0000
  N   N50       1.0  0.51572  0.05593  0.72439  1.0000
  C   C872      1.0  0.75352  0.46927  0.77694  1.0000
  H   H1500     1.0  0.90881  0.18338  0.69464  1.0000
  H   H1501     1.0  0.65989  0.18207  0.78522  1.0000
  H   H1502     1.0  0.92583  0.12205  0.82571  1.0000
  H   H1503     1.0  0.86895  0.16440  0.96520  1.0000
  H   H1504     1.0  0.99478  0.44855  0.74171  1.0000
  H   H1505     1.0  0.74494  0.42210  0.96416  1.0000
  H   H1506     1.0  0.78127  0.47936  0.71142  1.0000
  H   H1507     1.0  0.67963  0.16375  0.69028  1.0000
  H   H1508     1.0  0.71776  0.47263  0.81565  1.0000
  C   C873      1.0  0.73973  0.10846  0.70237  1.0000
  H   H1509     1.0  0.99637  0.02013  0.68117  1.0000
  C   C874      1.0  0.63499  0.15729  0.79062  1.0000
  H   H1510     1.0  0.73199  0.33952  0.70856  1.0000
  H   H1511     1.0  0.78218  0.35272  0.69798  1.0000
  H   H1512     1.0  0.81793  0.24711  0.68666  1.0000
  H   H1513     1.0  0.62481  0.09645  0.69198  1.0000
  C   C875      1.0  0.69042  0.14384  0.69812  1.0000
  C   C876      1.0  0.76428  0.27341  0.70868  1.0000
  H   H1514     1.0  0.81099  0.24696  0.73028  1.0000
  H   H1515     1.0  0.64019  0.05179  0.69630  1.0000
  H   H1516     1.0  0.62277  0.15820  0.80304  1.0000
  C   C877      1.0  0.84810  0.10515  0.83121  1.0000
  C   C878      1.0  0.55055  0.07112  0.71062  1.0000
  H   H1517     1.0  0.68479  0.07301  0.89411  1.0000
  H   H1518     1.0  0.53170  0.28960  0.79047  1.0000
  C   C879      1.0  0.74804  0.40935  0.93367  1.0000
  H   H1519     1.0  0.77935  0.42195  0.92903  1.0000
  H   H1520     1.0  0.84282  0.20563  0.70502  1.0000
  C   C880      1.0  0.86786  0.21171  0.72462  1.0000
  H   H1521     1.0  0.76775  0.47141  0.73215  1.0000
  H   H1522     1.0  0.94620  0.46451  0.72854  1.0000
  H   H1523     1.0  0.83134  0.26585  0.70982  1.0000
  C   C881      1.0  0.79231  0.22499  0.68713  1.0000
  H   H1524     1.0  0.88828  0.23963  0.71834  1.0000
  C   C882      1.0  0.76093  0.48583  0.72110  1.0000
  H   H1525     1.0  0.78525  0.28727  0.69710  1.0000
  H   H1526     1.0  0.97400  0.03009  0.75394  1.0000
  H   H1527     1.0  0.80363  0.20070  0.68351  1.0000
  H   H1528     1.0  0.64529  0.13014  0.79086  1.0000
  H   H1529     1.0  0.97633  0.21143  0.83893  1.0000
  H   H1530     1.0  0.90818  0.15949  0.83282  1.0000
  H   H1531     1.0  0.73208  0.07535  0.72626  1.0000
  C   C883      1.0  0.71983  0.46402  0.72170  1.0000
  H   H1532     1.0  0.68403  0.48661  0.84277  1.0000
  H   H1533     1.0  0.69953  0.46455  0.73276  1.0000
  H   H1534     1.0  0.91267  0.10023  0.69021  1.0000
  C   C884      1.0  0.91286  0.13000  0.83672  1.0000
  C   C885      1.0  0.76206  0.34236  0.70992  1.0000
  H   H1535     1.0  0.91532  0.19165  0.96553  1.0000
  H   H1536     1.0  0.77649  0.33673  0.65740  1.0000
  H   H1537     1.0  0.69072  0.31850  0.98228  1.0000
  H   H1538     1.0  0.80505  0.02245  0.69106  1.0000
  H   H1539     1.0  0.74056  0.05227  0.90229  1.0000
  H   H1540     1.0  0.93541  0.20723  0.87668  1.0000
  H   H1541     1.0  0.81925  0.08550  0.83635  1.0000
  H   H1542     1.0  0.95812  0.19571  0.69604  1.0000
  C   C886      1.0  0.77110  0.24071  0.67479  1.0000
  H   H1543     1.0  0.92507  0.06971  0.80707  1.0000
  H   H1544     1.0  0.99297  0.19483  0.73782  1.0000
  H   H1545     1.0  0.85898  0.21089  0.73745  1.0000
  H   H1546     1.0  0.76790  0.36426  0.71678  1.0000
  H   H1547     1.0  0.51110  0.00970  0.70158  1.0000
  H   H1548     1.0  0.88290  0.18797  0.72342  1.0000
  H   H1549     1.0  0.92060  0.17746  0.85529  1.0000
  H   H1550     1.0  0.73862  0.43420  0.91071  1.0000
  C   C887      1.0  0.98201  0.47067  0.85711  1.0000
  H   H1551     1.0  0.88220  0.46921  0.86890  1.0000
  S   S211      1.0  0.95947  0.35893  0.75835  1.0000
  H   H1552     1.0  0.98906  0.13752  0.82804  1.0000
  Fe  Fe107     1.0  0.87893  0.49066  0.67725  1.0000
  C   C888      1.0  0.73679  0.39078  0.97014  1.0000
  S   S212      1.0  0.98146  0.27304  0.78915  1.0000
  C   C889      1.0  0.93088  0.13479  0.70539  1.0000
  H   H1553     1.0  0.73483  0.42991  0.93947  1.0000
  C   C890      1.0  0.87654  0.07114  0.73046  1.0000
  S   S213      1.0  0.87814  0.13944  0.66667  1.0000
  Fe  Fe108     1.0  0.96931  0.21939  0.78046  1.0000
  H   H1554     1.0  0.95930  0.12681  0.70395  1.0000
  H   H1555     1.0  0.84984  0.44229  0.74342  1.0000
  H   H1556     1.0  0.93506  0.04626  0.70025  1.0000
  H   H1557     1.0  0.53199  0.05566  0.77069  1.0000
  C   C891      1.0  0.86460  0.03143  0.69322  1.0000
  C   C892      1.0  0.99724  0.32491  0.87527  1.0000
  C   C893      1.0  0.52953  0.11058  0.82113  1.0000
  H   H1558     1.0  0.56699  0.33027  0.77734  1.0000
  H   H1559     1.0  0.74269  0.38465  0.91347  1.0000
  H   H1560     1.0  0.96019  0.28280  0.89627  1.0000
  Fe  Fe109     1.0  0.84871  0.48965  0.83865  1.0000
  C   C894      1.0  0.94833  0.41950  0.71638  1.0000
  C   C895      1.0  0.84206  0.04643  0.75962  1.0000
  H   H1561     1.0  0.51570  0.18143  0.74894  1.0000
  H   H1562     1.0  0.95769  0.46740  0.86740  1.0000
  H   H1563     1.0  0.96580  0.14914  0.73676  1.0000
  C   C896      1.0  0.95108  0.07224  0.65761  1.0000
  H   H1564     1.0  0.99118  0.32639  0.82762  1.0000
  H   H1565     1.0  0.83261  0.07400  0.75956  1.0000
  H   H1566     1.0  0.84454  0.01202  0.71850  1.0000
  H   H1567     1.0  0.99639  0.09149  0.74094  1.0000
  C   C897      1.0  0.70554  0.26341  0.98456  1.0000
  H   H1568     1.0  0.58290  0.34063  0.65189  1.0000
  H   H1569     1.0  0.81816  0.03495  0.74031  1.0000
  C   C898      1.0  0.99050  0.11353  0.66955  1.0000
  C   C899      1.0  0.97293  0.03814  0.86772  1.0000
  H   H1570     1.0  0.88771  0.01510  0.69203  1.0000
  H   H1571     1.0  0.98421  0.49823  0.84847  1.0000
  C   C900      1.0  0.82896  0.00701  0.69040  1.0000
  H   H1572     1.0  0.57578  0.01962  0.71389  1.0000
  C   C901      1.0  0.49859  0.01359  0.72655  1.0000
  H   H1573     1.0  0.49892  0.06631  0.74772  1.0000
  H   H1574     1.0  0.83596  0.00159  0.67836  1.0000
  C   C902      1.0  0.69925  0.14443  0.65290  1.0000
  H   H1575     1.0  0.57984  0.58645  0.18803  1.0000
  H   H1576     1.0  0.52279  0.86102  0.26261  1.0000
  C   C903      1.0  0.60429  0.63460  0.24462  1.0000
  H   H1577     1.0  0.52359  0.53865  0.23942  1.0000
  N   N51       1.0  0.54996  0.62420  0.22932  1.0000
  H   H1578     1.0  0.96608  0.54615  0.17854  1.0000
  H   H1579     1.0  0.56764  0.90261  0.22748  1.0000
  S   S214      1.0  0.52077  0.92430  0.28303  1.0000
  C   C904      1.0  0.64725  0.65220  0.24175  1.0000
  H   H1580     1.0  0.50818  0.71875  0.14322  1.0000
  H   H1581     1.0  0.51933  0.91994  0.18736  1.0000
  C   C905      1.0  0.49844  0.81941  0.31249  1.0000
  H   H1582     1.0  0.52740  0.66722  0.25201  1.0000
  H   H1583     1.0  0.54549  0.77587  0.26554  1.0000
  H   H1584     1.0  0.90741  0.59430  0.28556  1.0000
  H   H1585     1.0  0.52554  0.73512  0.22543  1.0000
  H   H1586     1.0  0.53157  0.59203  0.18732  1.0000
  C   C906      1.0  0.53840  0.68464  0.23963  1.0000
  C   C907      1.0  0.99082  0.60271  0.25614  1.0000
  H   H1587     1.0  0.54485  0.65360  0.19594  1.0000
  C   C908      1.0  0.53808  0.90544  0.23246  1.0000
  C   C909      1.0  0.62645  0.97456  0.17140  1.0000
  C   C910      1.0  0.92995  0.51007  0.20116  1.0000
  H   H1588     1.0  0.59205  0.64657  0.19748  1.0000
  C   C911      1.0  0.54956  0.81878  0.20536  1.0000
  H   H1589     1.0  0.58823  0.65115  0.25167  1.0000
  H   H1590     1.0  0.54395  0.85406  0.29271  1.0000
  C   C912      1.0  0.57211  0.92646  0.16995  1.0000
  C   C913      1.0  0.51621  0.85244  0.30034  1.0000
  H   H1591     1.0  0.55070  0.84361  0.19549  1.0000
  H   H1592     1.0  0.65499  0.65142  0.25332  1.0000
  H   H1593     1.0  0.60723  0.61282  0.22370  1.0000
  H   H1594     1.0  0.65423  0.68279  0.23491  1.0000
  H   H1595     1.0  0.52715  0.79846  0.28103  1.0000
  H   H1596     1.0  0.85714  0.50118  0.31113  1.0000
  C   C914      1.0  0.96197  0.54479  0.19142  1.0000
  H   H1597     1.0  0.61145  0.96801  0.12729  1.0000
  C   C915      1.0  0.56180  0.63161  0.19879  1.0000
  H   H1598     1.0  0.52354  0.79603  0.20669  1.0000
  H   H1599     1.0  0.65629  0.98986  0.16691  1.0000
  H   H1600     1.0  0.98083  0.64905  0.23307  1.0000
  C   C916      1.0  0.59258  0.63385  0.22867  1.0000
  H   H1601     1.0  0.56906  0.98986  0.10222  1.0000
  C   C917      1.0  0.52668  0.59591  0.24450  1.0000
  H   H1602     1.0  0.55618  0.57972  0.21650  1.0000
  H   H1603     1.0  0.97269  0.58922  0.24906  1.0000
  S   S215      1.0  0.50802  0.71989  0.31252  1.0000
  C   C918      1.0  0.54258  0.93202  0.24391  1.0000
  H   H1604     1.0  0.56918  0.69884  0.23771  1.0000
  H   H1605     1.0  0.57553  0.85431  0.21860  1.0000
  C   C919      1.0  0.55326  0.98930  0.11440  1.0000
  H   H1606     1.0  0.52609  0.94679  0.31351  1.0000
  H   H1607     1.0  0.57257  0.91361  0.30393  1.0000
  C   C920      1.0  0.62852  0.94233  0.27646  1.0000
  H   H1608     1.0  0.61008  0.51167  0.28949  1.0000
  H   H1609     1.0  0.55421  0.84363  0.24922  1.0000
  H   H1610     1.0  0.65223  0.92907  0.27957  1.0000
  H   H1611     1.0  0.63820  0.98632  0.28906  1.0000
  S   S216      1.0  0.55254  0.89447  0.15953  1.0000
  H   H1612     1.0  0.98952  0.70747  0.20964  1.0000
  H   H1613     1.0  0.50689  0.86530  0.21569  1.0000
  C   C921      1.0  0.53560  0.55509  0.24732  1.0000
  H   H1614     1.0  0.66522  0.96491  0.31068  1.0000
  H   H1615     1.0  0.90961  0.57997  0.26715  1.0000
  C   C922      1.0  0.61371  0.96351  0.28887  1.0000
  H   H1616     1.0  0.95421  0.57188  0.19360  1.0000
  H   H1617     1.0  0.93251  0.55728  0.28169  1.0000
  H   H1618     1.0  0.56696  0.55629  0.24475  1.0000
  C   C923      1.0  0.58457  0.52008  0.29591  1.0000
  H   H1619     1.0  0.55057  0.80684  0.23001  1.0000
  C   C924      1.0  0.51640  0.71679  0.23773  1.0000
  H   H1620     1.0  0.59470  0.97050  0.22801  1.0000
  C   C925      1.0  0.51730  0.53217  0.26439  1.0000
  H   H1621     1.0  0.55672  0.99237  0.30491  1.0000
  H   H1622     1.0  0.53015  0.54617  0.27276  1.0000
  H   H1623     1.0  0.74488  0.50295  0.18286  1.0000
  H   H1624     1.0  0.52216  0.50244  0.26589  1.0000
  H   H1625     1.0  0.54754  0.96914  0.20024  1.0000
  C   C926      1.0  0.59651  0.93511  0.30542  1.0000
  C   C927      1.0  0.54390  0.60588  0.21582  1.0000
  C   C928      1.0  0.54936  0.93441  0.18308  1.0000
  H   H1626     1.0  0.57842  0.54470  0.28789  1.0000
  C   C929      1.0  0.54898  0.83179  0.22078  1.0000
  H   H1627     1.0  0.59869  0.60498  0.25219  1.0000
  C   C930      1.0  0.53391  0.66014  0.22738  1.0000
  H   H1628     1.0  0.99342  0.54762  0.29170  1.0000
  H   H1629     1.0  0.97685  0.62100  0.27843  1.0000
  H   H1630     1.0  0.55917  0.97534  0.14595  1.0000
  H   H1631     1.0  0.66481  0.63564  0.23517  1.0000
  H   H1632     1.0  0.60634  0.66234  0.22020  1.0000
  H   H1633     1.0  0.59166  0.52965  0.30636  1.0000
  C   C931      1.0  0.56530  0.96220  0.19038  1.0000
  C   C932      1.0  0.53634  0.94608  0.12298  1.0000
  H   H1634     1.0  0.90342  0.51328  0.19714  1.0000
  H   H1635     1.0  0.50959  0.52204  0.30390  1.0000
  H   H1636     1.0  0.51733  0.94285  0.13484  1.0000
  C   C933      1.0  0.96311  0.61588  0.26866  1.0000
  H   H1637     1.0  0.61817  0.91826  0.30821  1.0000
  H   H1638     1.0  0.92563  0.51140  0.21378  1.0000
  C   C934      1.0  0.60382  0.98223  0.18460  1.0000
  C   C935      1.0  0.54814  0.96891  0.31591  1.0000
  C   C936      1.0  0.56143  0.60768  0.18641  1.0000
  H   H1639     1.0  0.55959  0.93058  0.12452  1.0000
  H   H1640     1.0  0.54813  0.68049  0.21572  1.0000
  H   H1641     1.0  0.62839  0.94046  0.15404  1.0000
  C   C937      1.0  0.61069  0.94651  0.16418  1.0000
  C   C938      1.0  0.56641  0.97224  0.23504  1.0000
  H   H1642     1.0  0.68168  0.97652  0.12848  1.0000
  C   C939      1.0  0.50198  0.99858  0.16154  1.0000
  H   H1643     1.0  0.98966  0.54295  0.19475  1.0000
  H   H1644     1.0  0.52954  0.60735  0.25503  1.0000
  H   H1645     1.0  0.95522  0.64282  0.26328  1.0000
  H   H1646     1.0  0.50277  0.65243  0.22746  1.0000
  H   H1647     1.0  0.51422  0.93517  0.25025  1.0000
  C   C940      1.0  0.51159  0.84590  0.22618  1.0000
  H   H1648     1.0  0.51250  0.59561  0.21682  1.0000
  H   H1649     1.0  0.57274  0.62699  0.17432  1.0000
  H   H1650     1.0  0.57543  0.80691  0.20219  1.0000
  H   H1651     1.0  0.57172  0.98939  0.24377  1.0000
  C   C941      1.0  0.92599  0.58492  0.27618  1.0000
  H   H1652     1.0  0.55080  0.98719  0.22699  1.0000
  H   H1653     1.0  0.55829  0.92015  0.25259  1.0000
  H   H1654     1.0  0.60487  0.91944  0.27557  1.0000
  H   H1655     1.0  0.51271  0.79584  0.31438  1.0000
  H   H1656     1.0  0.55229  0.51198  0.19731  1.0000
  H   H1657     1.0  0.59148  0.97751  0.28475  1.0000
  C   C942      1.0  0.52353  0.84511  0.25307  1.0000
  H   H1658     1.0  0.52875  0.92149  0.22236  1.0000
  C   C943      1.0  0.51199  0.92568  0.11355  1.0000
  N   N52       1.0  0.51054  0.86655  0.23943  1.0000
  C   C944      1.0  0.51920  0.78201  0.27243  1.0000
  H   H1659     1.0  0.77440  0.50459  0.12268  1.0000
  H   H1660     1.0  0.80557  0.52432  0.10307  1.0000
  H   H1661     1.0  0.63966  0.96306  0.26467  1.0000
  H   H1662     1.0  0.52202  0.73503  0.24605  1.0000
  C   C945      1.0  0.49808  0.88330  0.29808  1.0000
  H   H1663     1.0  0.52977  0.92651  0.10170  1.0000
  C   C946      1.0  0.61662  0.99855  0.12051  1.0000
  H   H1664     1.0  0.62833  0.99833  0.10795  1.0000
  H   H1665     1.0  0.49948  0.75421  0.27924  1.0000
  C   C947      1.0  0.49887  0.80415  0.26137  1.0000
  H   H1666     1.0  0.50017  0.89497  0.12006  1.0000
  C   C948      1.0  0.98571  0.75982  0.63269  1.0000
  C   C949      1.0  0.53542  0.88922  0.33616  1.0000
  H   H1667     1.0  0.90504  0.56137  0.32422  1.0000
  C   C950      1.0  0.54017  0.52293  0.34969  1.0000
  C   C951      1.0  0.52758  0.85902  0.35181  1.0000
  H   H1668     1.0  0.64695  0.58322  0.35206  1.0000
  H   H1669     1.0  0.57526  0.54489  0.40113  1.0000
  H   H1670     1.0  0.50909  0.90076  0.33610  1.0000
  H   H1671     1.0  0.69810  0.53723  0.39997  1.0000
  H   H1672     1.0  0.50184  0.83615  0.35276  1.0000
  H   H1673     1.0  0.56674  0.93451  0.34463  1.0000
  C   C952      1.0  0.71005  0.59876  0.39571  1.0000
  H   H1674     1.0  0.52178  0.87234  0.36203  1.0000
  H   H1675     1.0  0.67922  0.55359  0.33131  1.0000
  C   C953      1.0  0.56910  0.52184  0.39483  1.0000
  H   H1676     1.0  0.96656  0.56912  0.33205  1.0000
  H   H1677     1.0  0.59993  0.55829  0.37215  1.0000
  H   H1678     1.0  0.53974  0.87400  0.32653  1.0000
  H   H1679     1.0  0.69151  0.59493  0.35768  1.0000
  H   H1680     1.0  0.88461  0.52591  0.59909  1.0000
  H   H1681     1.0  0.55245  0.84521  0.35232  1.0000
  C   C954      1.0  0.60035  0.52936  0.37912  1.0000
  H   H1682     1.0  0.71720  0.56278  0.37940  1.0000
  H   H1683     1.0  0.59560  0.90718  0.33532  1.0000
  H   H1684     1.0  0.65138  0.58647  0.38230  1.0000
  C   C955      1.0  0.55383  0.60355  0.34116  1.0000
  S   S217      1.0  0.56208  0.65378  0.33546  1.0000
  C   C956      1.0  0.65255  0.97494  0.32115  1.0000
  H   H1685     1.0  0.60346  0.99556  0.33086  1.0000
  H   H1686     1.0  0.65216  0.51128  0.35831  1.0000
  C   C957      1.0  0.57140  0.92175  0.33417  1.0000
  C   C958      1.0  0.67367  0.57352  0.35316  1.0000
  C   C959      1.0  0.95167  0.53948  0.33222  1.0000
  H   H1687     1.0  0.52931  0.54963  0.38360  1.0000
  C   C960      1.0  0.58416  0.58514  0.33785  1.0000
  H   H1688     1.0  0.61275  0.60216  0.33179  1.0000
  C   C961      1.0  0.69661  0.56186  0.39058  1.0000
  H   H1689     1.0  0.89270  0.51051  0.33350  1.0000
  H   H1690     1.0  0.92358  0.69313  0.64469  1.0000
  H   H1691     1.0  0.72430  0.56763  0.33668  1.0000
  C   C962      1.0  0.57733  0.54478  0.34211  1.0000
  H   H1692     1.0  0.92984  0.77506  0.63394  1.0000
  H   H1693     1.0  0.95218  0.52076  0.35696  1.0000
  H   H1694     1.0  0.99675  0.96251  0.63883  1.0000
  C   C963      1.0  0.52841  0.98631  0.32915  1.0000
  C   C964      1.0  0.51668  0.58166  0.34872  1.0000
  H   H1695     1.0  0.60088  0.53074  0.33971  1.0000
  Fe  Fe110     1.0  0.50682  0.66740  0.33103  1.0000
  C   C965      1.0  0.95839  0.50972  0.34605  1.0000
  H   H1696     1.0  0.50765  0.51765  0.40290  1.0000
  H   H1697     1.0  0.97743  0.73479  0.62766  1.0000
  H   H1698     1.0  0.73978  0.60037  0.39738  1.0000
  H   H1699     1.0  0.52444  0.50423  0.32136  1.0000
  H   H1700     1.0  0.71032  0.62461  0.38649  1.0000
  H   H1701     1.0  0.64925  0.95200  0.33199  1.0000
  C   C966      1.0  0.69577  0.57458  0.33645  1.0000
  C   C967      1.0  0.98182  0.74711  0.65083  1.0000
  H   H1702     1.0  0.70051  0.60390  0.32866  1.0000
  H   H1703     1.0  0.89646  0.54538  0.34550  1.0000
  C   C968      1.0  0.65474  0.55796  0.38869  1.0000
  H   H1704     1.0  0.69418  0.52659  0.36458  1.0000
  N   N53       1.0  0.64060  0.52691  0.38081  1.0000
  C   C969      1.0  0.66539  0.53257  0.36430  1.0000
  C   C970      1.0  0.90881  0.53907  0.33404  1.0000
  C   C971      1.0  0.50988  0.54136  0.35302  1.0000
  H   H1705     1.0  0.69083  0.59900  0.40711  1.0000
  H   H1706     1.0  0.63657  0.55280  0.40090  1.0000
  H   H1707     1.0  0.91742  0.62238  0.64602  1.0000
  H   H1708     1.0  0.51994  0.96545  0.34089  1.0000
  H   H1709     1.0  0.96249  0.53328  0.32062  1.0000
  H   H1710     1.0  0.84843  0.52082  0.57833  1.0000
  H   H1711     1.0  0.77184  0.51054  0.62279  1.0000
  H   H1712     1.0  0.59006  0.50841  0.37236  1.0000
  C   C972      1.0  0.52928  0.52177  0.39159  1.0000
  H   H1713     1.0  0.96888  0.81442  0.63342  1.0000
  H   H1714     1.0  0.98236  0.67000  0.64218  1.0000
  C   C973      1.0  0.96088  0.78864  0.62876  1.0000
  H   H1715     1.0  0.78117  0.50410  0.64225  1.0000
  H   H1716     1.0  0.96544  0.79820  0.61568  1.0000
  N   N54       1.0  0.58234  0.95277  0.31889  1.0000
  C   C974      1.0  0.61320  0.98508  0.32010  1.0000
  C   C975      1.0  0.99736  0.73862  0.82804  1.0000
  H   H1717     1.0  0.98468  0.57927  0.72303  1.0000
  C   C976      1.0  0.95751  0.70050  0.68563  1.0000
  H   H1718     1.0  0.91835  0.63982  0.85288  1.0000
  H   H1719     1.0  0.91515  0.87461  0.76240  1.0000
  H   H1720     1.0  0.94495  0.74352  0.87725  1.0000
  H   H1721     1.0  0.96441  0.52113  0.66988  1.0000
  H   H1722     1.0  0.93967  0.59691  0.70023  1.0000
  C   C977      1.0  0.94748  0.55716  0.68537  1.0000
  H   H1723     1.0  0.97311  0.71325  0.83064  1.0000
  H   H1724     1.0  0.80446  0.55030  0.74457  1.0000
  H   H1725     1.0  0.94311  0.60095  0.85398  1.0000
  H   H1726     1.0  0.87631  0.52666  0.72800  1.0000
  H   H1727     1.0  0.75871  0.53853  0.80583  1.0000
  H   H1728     1.0  0.73641  0.51564  0.74408  1.0000
  C   C978      1.0  0.97106  0.67494  0.65408  1.0000
  H   H1729     1.0  0.98897  0.75824  0.80449  1.0000
  H   H1730     1.0  0.97576  0.77204  0.75730  1.0000
  C   C979      1.0  0.80853  0.54347  0.72010  1.0000
  H   H1731     1.0  0.94389  0.81778  0.76849  1.0000
  H   H1732     1.0  0.98184  0.56184  0.82409  1.0000
  H   H1733     1.0  0.64562  0.54858  0.74410  1.0000
  S   S218      1.0  0.91222  0.51097  0.83486  1.0000
  H   H1734     1.0  0.91382  0.68303  0.66580  1.0000
  H   H1735     1.0  0.98162  0.72806  0.70240  1.0000
  H   H1736     1.0  0.96141  0.62002  0.77740  1.0000
  H   H1737     1.0  0.99683  0.63917  0.86098  1.0000
  H   H1738     1.0  0.70388  0.57231  0.72227  1.0000
  C   C980      1.0  0.98717  0.70468  0.77470  1.0000
  H   H1739     1.0  0.96516  0.69702  0.76807  1.0000
  C   C981      1.0  0.94022  0.87096  0.75382  1.0000
  H   H1740     1.0  0.78127  0.59882  0.67331  1.0000
  H   H1741     1.0  0.93915  0.67197  0.68640  1.0000
  H   H1742     1.0  0.98915  0.66306  0.84272  1.0000
  S   S219      1.0  0.84141  0.54128  0.82176  1.0000
  S   S220      1.0  0.94131  0.62026  0.81269  1.0000
  H   H1743     1.0  0.82155  0.56542  0.68856  1.0000
  H   H1744     1.0  0.75485  0.54366  0.82586  1.0000
  H   H1745     1.0  0.96488  0.58414  0.76625  1.0000
  C   C982      1.0  0.98188  0.60863  0.76948  1.0000
  H   H1746     1.0  0.97156  0.76211  0.84648  1.0000
  C   C983      1.0  0.78228  0.56830  0.67354  1.0000
  C   C984      1.0  0.70056  0.54384  0.73052  1.0000
  H   H1747     1.0  0.92538  0.61585  0.87180  1.0000
  H   H1748     1.0  0.95166  0.98138  0.70614  1.0000
  C   C985      1.0  0.98956  0.76928  0.81527  1.0000
  C   C986      1.0  0.97249  0.69018  0.86286  1.0000
  C   C987      1.0  0.73997  0.52927  0.81806  1.0000
  H   H1749     1.0  0.79448  0.51933  0.68811  1.0000
  C   C988      1.0  0.96031  0.58671  0.69244  1.0000
  H   H1750     1.0  0.75410  0.56585  0.73529  1.0000
  H   H1751     1.0  0.81720  0.57551  0.71567  1.0000
  H   H1752     1.0  0.71249  0.53860  0.81785  1.0000
  H   H1753     1.0  0.99133  0.83473  0.74059  1.0000
  H   H1754     1.0  0.75393  0.55251  0.67268  1.0000
  H   H1755     1.0  0.66801  0.51461  0.75467  1.0000
  C   C989      1.0  0.81796  0.53377  0.73661  1.0000
  H   H1756     1.0  0.92947  0.85675  0.74503  1.0000
  H   H1757     1.0  0.98004  0.77517  0.77667  1.0000
  H   H1758     1.0  0.97372  0.79056  0.86612  1.0000
  C   C990      1.0  0.97705  0.65485  0.85567  1.0000
  S   S221      1.0  0.89808  0.53648  0.68973  1.0000
  C   C991      1.0  0.99448  0.97814  0.75599  1.0000
  H   H1759     1.0  0.68610  0.52165  0.72540  1.0000
  H   H1760     1.0  0.94520  0.69828  0.86100  1.0000
  H   H1761     1.0  0.97113  0.86064  0.77192  1.0000
  C   C992      1.0  0.93851  0.62621  0.85885  1.0000
  H   H1762     1.0  0.96693  0.67893  0.87594  1.0000
  C   C993      1.0  0.79254  0.54915  0.68868  1.0000
  Fe  Fe111     1.0  0.90610  0.55978  0.81631  1.0000
  C   C994      1.0  0.74070  0.53815  0.73292  1.0000
  N   N55       1.0  0.76731  0.52889  0.71945  1.0000
  C   C995      1.0  0.86142  0.54408  0.73514  1.0000
  H   H1763     1.0  0.90635  0.61283  0.66744  1.0000
  H   H1764     1.0  0.87340  0.57522  0.72943  1.0000
  H   H1765     1.0  0.94968  0.96000  0.72649  1.0000
  H   H1766     1.0  0.80745  0.50279  0.74247  1.0000
  H   H1767     1.0  0.95853  0.89994  0.74751  1.0000
  H   H1768     1.0  0.99646  0.57557  0.74185  1.0000
  C   C996      1.0  0.96322  0.84646  0.76264  1.0000
  C   C997      1.0  0.97417  0.54379  0.67542  1.0000
  H   H1769     1.0  0.97250  0.70734  0.78655  1.0000
  H   H1770     1.0  0.93481  0.69617  0.71064  1.0000
  S   S222      1.0  0.91441  0.52989  0.79650  1.0000
  C   C998      1.0  0.95205  0.98763  0.71788  1.0000
  H   H1771     1.0  0.99488  0.57421  0.78934  1.0000
  H   H1772     1.0  0.76324  0.58057  0.70352  1.0000
  H   H1773     1.0  0.86720  0.53790  0.74715  1.0000
  C   C999      1.0  0.76222  0.54960  0.70367  1.0000
  H   H1774     1.0  0.94941  0.79101  0.89381  1.0000
  H   H1775     1.0  0.68634  0.56602  0.75160  1.0000
  H   H1776     1.0  0.96826  0.96399  0.75293  1.0000
  Fe  Fe112     1.0  0.85054  0.50563  0.80389  1.0000
  H   H1777     1.0  0.73348  0.53795  0.70188  1.0000
  H   H1778     1.0  0.80441  0.56772  0.66302  1.0000
  H   H1779     1.0  0.82839  0.53170  0.71203  1.0000
  C   C1000     1.0  0.67360  0.54323  0.74622  1.0000
  C   C1001     1.0  0.99722  0.77712  0.76454  1.0000
  H   H1780     1.0  0.51879  0.99551  0.72979  1.0000
  H   H1781     1.0  0.97347  0.64892  0.66265  1.0000
  H   H1782     1.0  0.89179  0.98597  0.72294  1.0000
  H   H1783     1.0  0.81939  0.97881  0.69929  1.0000
  S   S223      1.0  0.84943  0.50466  0.65760  1.0000
  H   H1784     1.0  0.95142  0.74452  0.65694  1.0000
  H   H1785     1.0  0.97184  0.75227  0.90056  1.0000
  H   H1786     1.0  0.94209  0.72358  0.68243  1.0000
  H   H1787     1.0  0.96779  0.51206  0.73732  1.0000
  H   H1788     1.0  0.99643  0.63183  0.75861  1.0000
  N   N56       1.0  0.99543  0.71087  0.65637  1.0000
  C   C1002     1.0  0.96319  0.70026  0.70229  1.0000
  H   H1789     1.0  0.96119  0.77611  0.81944  1.0000
  C   C1003     1.0  0.98884  0.62286  0.81496  1.0000
  C   C1004     1.0  0.97274  0.76436  0.87531  1.0000
  H   H1790     1.0  0.97662  0.67616  0.70655  1.0000
  H   H1791     1.0  0.99021  0.97000  0.76910  1.0000
  C   C1005     1.0  0.97396  0.77729  0.89064  1.0000
  S   S224      1.0  0.81590  0.50445  0.78539  1.0000
  C   C1006     1.0  0.92751  0.67373  0.65535  1.0000
  H   H1792     1.0  0.87452  0.63313  0.65669  1.0000
  C   C1007     1.0  0.90522  0.63302  0.65642  1.0000
  C   C1008     1.0  0.99654  0.70674  0.67356  1.0000
