data_image0
_chemical_formula_structural       CFeS2H2CHCHS2C2FeS2FeSFeSHC3H4C6H4C6SHC7H3NC2HC3HC4H6CH20SFeC2HC2H2CH2CH2CSHCSHFeH5CNCH2SHCH18FeHCH4FeH3C2H3CH2CH5CFeSFeS2FeSFeS3FeS2FeS2FeS2FeS2FeSFeS3FeS2FeS2FeSFeS3CHC3H3CHC6H6C6H9C6H4C4H6C6H5C3FeH2C4H5NC4HC6H6CSHCH4CH8NC8H2CH9CH12CH4CH2CNH2C2HC4HC3H14CHNC7HCHCH11CH4CHCHSHCHC3HC2H2NC11H24CHC2HCH3CH9CHCHCH5C2HCHC2HSC2H4SH5CHC3HCH6CH5C5H2CH2CHCH5C2H2C2SH3CH9C2NCHCHC2H4CH3CHCNH3CH4NH3CH5C2H4C2NCH3C2H2CH2FeS2FeS2FeSFeS2CFeS2FeS2Fe2S3HCHSH2C2H5C6H4CH4C6H4C6H7SH2CH3CHCH2CH3SCH4C3HCHCNHCH2CHNCHC4HCHC2H14C2H3C2H7CNC12H30CHC2H8CHC2HCH4CHSCSH2SFeS2FeSFeSFeS3FeS2Fe2S2FeS2FeS2FeSFeS3FeS2FeS2FeSFeS3CH2CH6C2H3C6H4CHC6H4CHCH2C6H5C6H4CHC6H6C3H2CHC2H15C3H5CHNCHSHCSH2SH2C2HCH2NC12H30CHCNHC5HC2HC2H3CH6CH6CH4C2H6CH5C2H4NCHC5H2C2H4CH6CH4CHFeCH3CH2CH3CNHCH2CH6CHCH2CHCSH4FeCH2CH2CHC6NCH10CHCHC3H6SH10NH3C2HCH2C2HCH3CHC2SH3C2H2CHCH2NH2SCH9CH8CHCHFeHSHCFeS2FeH2FeSHSCSFeS2FeCFeS2FeS2FeS2FeSFeS3FeS2FeS2FeSFeS3H2CHCHC2H3CHCH2C3H2CH3CH2C6H4C9H4C2HC4H3CHCH2C6H4CH3C2H6C5H2CHC2HNCH7SH2NC12H30CHCHCH4CHFeHCH3CNC2HC2HC3H5NH6C3H2SCH3C2NC10HCH11CH5C2H4CH4CH3CH2CH4SHNC7SHC3H10CH3CH3SCH7C2HC2H6CH3CH2CH2C6H2CH2CH4C2HC2H3NH3C2H4CH4CH4C3HC2HCH2CH12CH8NFeH2CH2CH2CH3C3H3CHCH7SFeS2H2FeHSCFeS2FeCFeSHC2SHSHC3HC6H5CHC2HC2HSHCHC6H6FeH2SH2CHCHCH6CH2C2H5CH3CH2CH4CHCH6CH4CH2NC2HC2HNC3H7NH6CH6CH3CH4NC4HCHC2HCHC3HCH4CH3CH4C2HCH3CHC3H7FeSHFeS2FeSFeS3FeSHFeS2FeSFeS3H2SFeS2FeSHFeSFeS3CHSHCFeHSC2H6C2H3C6H5C6H4C2SHC6H4C2SH2C6H4C6H4FeH2CHCH12CHNHCHNC6HCHC4HCH10CHC2H5CSHCH3CNCHC2HCHCH2CHCHCH3CH4CHCHFeH3CH5NC12H30CHC3HNHC2H3CH9CSC2H2CH2CH2C2HNHCH3CHSCHCHCHCH3CH6CHCH2CSH3CH3CH5NH4C2H3CH14CH5C3HC2H2CH3CHC2H4CHNH4CH7CH2CH2CHCH2CHCH5CH6C4HNH2CH4CSH4C2SHCFeS2FeSFeSFeS3CHSH3CH2FeS2FeSFeSFeS3CH4C3H2CH3NHC2HC3H2C6H4C6H4NC12H25CHCHNHC2HCH3C2H5C3HSH2CH3NH2CH3CH5CH2CH2CHNCH2CH3CH6C2H8C2HCHFeCH7CHCH2CHC2HC3HCH4SH4C2H5CH2SHSC2HC2FeCH6CHSH2CHFeHSFeS3FeC2FeHSFeS2CHC4H4C2H2C8H5CH5CSNC6HC4SH4NH5CHC2H3CH6C2H2CH8C3NCHCH4SCH4C2H3CHC2HSHC2HC2SH3CHCHCHC3HFeH9CH3CH2CHCH3CH3CH4CH2SCH4CS2HFeHC2FeHSFeS2FeS2FeS2Fe2S3FeS2FeS2FeSFeS3FeS2FeS2FeSFeS3C6H4C6H4C6H4C6H4C4H4C2HC2HC2HCH3CHC2H3C4H4C3NCHCH4C3H2CHCHCH2NHCH2N2C12H29CHCH6CH5C2H2CHCHCH4CH2CH4C2H3CHSH6CH2CH4CHCH3C2H2C2H3SHCNC9H20CFeHCHCH8SHC4H2C2H3SH4CHCH4CHC4H6CHCHCHC2H5CH3C2NH6CH6CH7CH3C4H3CH10CH2CH6CH2C2HC3HCHFeS2FeS2FeSFeS2H3SH2FeS2FeS2Fe2S3C6H4C6H4C6H7C2H2C4H3C4H3FeCH3CH4C2HC2H3CH5NH3C2H4NC12H29C2HCH2C2HCH2CH3CHCSHC3H3CH3CHCH14C2H2CH3CHNH2CH2CH6NCNH5CH6C2HCH2C2H2CH2CH5CHC3H4CH2SH2SFeS2FeS2FeSFeS3FeS2FeS2FeSFeS3FeS2HFeS2FeS2FeS2Fe2S3CHC6H6C6H4C6H4C6H4C6H4C2HCH5C3H2CH2C2H2CHCH7NC4H2C3H2CH2CH16C2HCHC2H5FeH3CHCHC2H9NH4CH3CH5CH2CH2NCH4NC12H17CH12CH4CFeCH4CH2CNC4NC3HCHCHCH13CHCHCHC2HCH5CHCNCH3CHCH5NHCH3CH2CH7CH4CH2CH2C3H3CHSHCHC3FeH8C2H2C4HCH2CH3CH4CH7CHCH3CH2CSH2SCH3C2SC4H3CFeSFeS2FeS3FeS2FeS2FeSHS2FeS2FeS2FeSFeS3FeS2FeS2FeSFeS3HC5HC2H4C2HCH3C6H4C6H4C4H5C7H4C2HC3HCH3CH5C3SH4C2H5NC4H2C3H2CH6CH2C2H8NH3CHCH6C2HCH2CH3CHCH2CHCH2C2H8C2H3CHNHNC5H2CH3CH6C2HFeCH2CH8CH5CH2SH5CH3C2H3CH9CH3NH2FeC4H2CHCH2C2H5CH8CH3C2H2C2HCH3CHNHCHCH7CH6CHCH9C2H3CHNC5HC6H10CHCH2C2H2C7H4SH8CHC2NC2H4FeS2FeSFeSCHCHCSFeS2CHFeSCHC6H4C3H3C3H2CH2SHCH2CNCHCHCH3CHC2H3CH2SH2CH3CH4CH3C2H2CHC4H3C5H4C2H4CH3CH2SCH4CHCH7NH4CH3CHCFeH3NH3SHCSH2SCSH2C2HCHCHFeS2FeS2FeSFeS3FeSFeS2FeSFeS3FeSNFeS2FeSFeS5CSH2SCHC9H4C6H4C2H2C2H4C6H4C6H6CH2C2H2CH5C2H2CH3NCH2SHCHC4H5C2H11C2H4FeH4CHCH2CH2CHC2HC2HC2H2SH4C2H3CH2NCHCHNH4CH13CHCH2C2HCH2CH4CH2C2NHSHCH2CH4CNC3HC2SC2H11CH3SCH5CHCH4C2NC12H28CHFeHC2HCH6CH3FeH6CHCH3NSCHFeH8CH2C2HC2H3CH4CH5CHC3H3CHCHCH4CH3CSCSH2CHCHC2H7CH4CHCH5CH4C3FeCH6CHCFeCHCH2CNFeS2FeS2FeSFeS2FeS2FeS2FeSFeS2HCH3NCHSC7H4C6H4C3HC2H2CH2C3H6CH2CHCH8CHC2H5CH5CHCHC2H2C2H3SH3CNH3CH5C2H6CH3CH2C3HC2HCHCHCH6C3H2CH3NCHC4HCH2CH14NCHC2H3CH3CHCNC5HC4HCH8C2H3CH6CH2C2H2CH7C2H6NH4CH3CH
_chemical_formula_sum              "C1728 Fe192 S384 H3072 N96"
_cell_length_a       50.6203
_cell_length_b       100.264
_cell_length_c       53.1576
_cell_angle_alpha    84.5491
_cell_angle_beta     87.3506
_cell_angle_gamma    85.6416

_space_group_name_H-M_alt    "P 1"
_space_group_IT_number       1

loop_
  _space_group_symop_operation_xyz
  'x, y, z'

loop_
  _atom_site_type_symbol
  _atom_site_label
  _atom_site_symmetry_multiplicity
  _atom_site_fract_x
  _atom_site_fract_y
  _atom_site_fract_z
  _atom_site_occupancy
  C   C1        1.0  0.26222  0.00724  0.16529  1.0000
  Fe  Fe1       1.0  0.12389  0.01953  0.36040  1.0000
  S   S1        1.0  0.11112  0.01926  0.32013  1.0000
  S   S2        1.0  0.11082  0.03671  0.38437  1.0000
  H   H1        1.0  0.03474  0.01612  0.36878  1.0000
  H   H2        1.0  0.45328  0.98916  0.22486  1.0000
  C   C2        1.0  0.03504  0.04178  0.45610  1.0000
  H   H3        1.0  0.16186  0.02845  0.40641  1.0000
  C   C3        1.0  0.01621  0.02582  0.42801  1.0000
  H   H4        1.0  0.29816  0.99358  0.07541  1.0000
  S   S3        1.0  0.37782  0.04655  0.02601  1.0000
  S   S4        1.0  0.04944  0.99305  0.33274  1.0000
  C   C4        1.0  0.35653  0.98923  0.01648  1.0000
  C   C5        1.0  0.04092  0.99128  0.40529  1.0000
  Fe  Fe2       1.0  0.34266  0.00209  0.15063  1.0000
  S   S5        1.0  0.35083  0.01307  0.18421  1.0000
  S   S6        1.0  0.32258  0.00986  0.11424  1.0000
  Fe  Fe3       1.0  0.39013  0.00036  0.18579  1.0000
  S   S7        1.0  0.43164  0.00870  0.18462  1.0000
  Fe  Fe4       1.0  0.33214  0.99587  0.20791  1.0000
  S   S8        1.0  0.30268  0.99896  0.24248  1.0000
  H   H5        1.0  0.46327  0.02775  0.26440  1.0000
  C   C6        1.0  0.46014  0.99737  0.11238  1.0000
  C   C7        1.0  0.46457  0.00230  0.19246  1.0000
  C   C8        1.0  0.16088  0.98942  0.46617  1.0000
  H   H6        1.0  0.23345  0.02381  0.15568  1.0000
  H   H7        1.0  0.03486  0.03678  0.33683  1.0000
  H   H8        1.0  0.23504  0.99698  0.35494  1.0000
  H   H9        1.0  0.25272  0.99506  0.21792  1.0000
  C   C9        1.0  0.36367  0.03510  0.04930  1.0000
  C   C10       1.0  0.37539  0.03256  0.07291  1.0000
  C   C11       1.0  0.36360  0.02436  0.09264  1.0000
  C   C12       1.0  0.33952  0.01897  0.08914  1.0000
  C   C13       1.0  0.32785  0.02143  0.06550  1.0000
  C   C14       1.0  0.34006  0.02930  0.04552  1.0000
  H   H10       1.0  0.39352  0.03711  0.07605  1.0000
  H   H11       1.0  0.37269  0.02264  0.11080  1.0000
  H   H12       1.0  0.30899  0.01752  0.06275  1.0000
  H   H13       1.0  0.33061  0.03142  0.02759  1.0000
  C   C15       1.0  0.01640  0.00040  0.32811  1.0000
  C   C16       1.0  0.48639  0.00747  0.17831  1.0000
  C   C17       1.0  0.24762  0.99833  0.23636  1.0000
  C   C18       1.0  0.26793  0.00065  0.25210  1.0000
  C   C19       1.0  0.26047  0.00440  0.27652  1.0000
  C   C20       1.0  0.23344  0.00590  0.28494  1.0000
  S   S9        1.0  0.10358  0.00113  0.37473  1.0000
  H   H14       1.0  0.04687  0.02083  0.45589  1.0000
  C   C21       1.0  0.21311  0.00379  0.26899  1.0000
  C   C22       1.0  0.12407  0.03886  0.41387  1.0000
  C   C23       1.0  0.10886  0.04631  0.43118  1.0000
  C   C24       1.0  0.11914  0.04868  0.45441  1.0000
  C   C25       1.0  0.14501  0.04387  0.46027  1.0000
  C   C26       1.0  0.16025  0.03645  0.44292  1.0000
  C   C27       1.0  0.14976  0.03387  0.41990  1.0000
  H   H15       1.0  0.08915  0.05042  0.42647  1.0000
  H   H16       1.0  0.27576  0.00624  0.28906  1.0000
  H   H17       1.0  0.18037  0.03282  0.44717  1.0000
  N   N1        1.0  0.26442  0.03208  0.17490  1.0000
  C   C28       1.0  0.24616  0.04463  0.17664  1.0000
  C   C29       1.0  0.28342  0.03369  0.15209  1.0000
  H   H18       1.0  0.22818  0.12615  0.46508  1.0000
  C   C30       1.0  0.27934  0.02836  0.19880  1.0000
  C   C31       1.0  0.29611  0.03923  0.20751  1.0000
  C   C32       1.0  0.22520  0.04426  0.19894  1.0000
  H   H19       1.0  0.27492  0.00839  0.14780  1.0000
  C   C33       1.0  0.29285  0.04792  0.14410  1.0000
  C   C34       1.0  0.31530  0.04740  0.12389  1.0000
  C   C35       1.0  0.30750  0.03486  0.23339  1.0000
  C   C36       1.0  0.20921  0.05779  0.19964  1.0000
  H   H20       1.0  0.27492  0.00319  0.18101  1.0000
  H   H21       1.0  0.23533  0.04692  0.15876  1.0000
  H   H22       1.0  0.25746  0.05354  0.17819  1.0000
  H   H23       1.0  0.30133  0.02660  0.15476  1.0000
  H   H24       1.0  0.27426  0.03084  0.13484  1.0000
  H   H25       1.0  0.03070  0.05079  0.44270  1.0000
  C   C37       1.0  0.24034  0.11671  0.47056  1.0000
  H   H26       1.0  0.26557  0.02510  0.21475  1.0000
  H   H27       1.0  0.29332  0.01942  0.19667  1.0000
  H   H28       1.0  0.28423  0.04886  0.20920  1.0000
  H   H29       1.0  0.31323  0.04082  0.19407  1.0000
  H   H30       1.0  0.21086  0.03662  0.19706  1.0000
  H   H31       1.0  0.23475  0.04201  0.21739  1.0000
  H   H32       1.0  0.04856  0.99419  0.38588  1.0000
  H   H33       1.0  0.22238  0.06584  0.20258  1.0000
  H   H34       1.0  0.27619  0.05454  0.13589  1.0000
  H   H35       1.0  0.29997  0.05271  0.16014  1.0000
  H   H36       1.0  0.33280  0.04114  0.13131  1.0000
  H   H37       1.0  0.30873  0.04315  0.10686  1.0000
  H   H38       1.0  0.32143  0.05769  0.11815  1.0000
  H   H39       1.0  0.32160  0.02587  0.23231  1.0000
  H   H40       1.0  0.31843  0.04307  0.23966  1.0000
  H   H41       1.0  0.29143  0.03250  0.24772  1.0000
  H   H42       1.0  0.04540  0.05184  0.34790  1.0000
  H   H43       1.0  0.19418  0.05720  0.21555  1.0000
  H   H44       1.0  0.33448  0.99784  0.98372  1.0000
  H   H45       1.0  0.46832  0.01303  0.24714  1.0000
  S   S10       1.0  0.17829  0.00585  0.27808  1.0000
  Fe  Fe5       1.0  0.14966  0.00624  0.31392  1.0000
  C   C38       1.0  0.24278  0.99672  0.16148  1.0000
  C   C39       1.0  0.01110  0.01363  0.31773  1.0000
  H   H46       1.0  0.24028  0.10989  0.45526  1.0000
  C   C40       1.0  0.04600  0.04073  0.35161  1.0000
  C   C41       1.0  0.46970  0.99304  0.21340  1.0000
  H   H47       1.0  0.11296  0.09149  0.46899  1.0000
  H   H48       1.0  0.25399  0.98702  0.15835  1.0000
  C   C42       1.0  0.22060  0.00006  0.24457  1.0000
  H   H49       1.0  0.10736  0.99834  0.46028  1.0000
  H   H50       1.0  0.05950  0.01982  0.38879  1.0000
  C   C43       1.0  0.03352  0.03693  0.37777  1.0000
  H   H51       1.0  0.04293  0.04266  0.39139  1.0000
  H   H52       1.0  0.22916  0.06042  0.47009  1.0000
  C   C44       1.0  0.03789  0.02160  0.38556  1.0000
  S   S11       1.0  0.38243  0.99089  0.15041  1.0000
  H   H53       1.0  0.20640  0.99158  0.37386  1.0000
  C   C45       1.0  0.04087  0.02929  0.44179  1.0000
  S   S12       1.0  0.12845  0.98734  0.32532  1.0000
  H   H54       1.0  0.01092  0.07159  0.39559  1.0000
  Fe  Fe6       1.0  0.09153  0.00038  0.33478  1.0000
  H   H55       1.0  0.02700  0.00035  0.43915  1.0000
  H   H56       1.0  0.00627  0.03537  0.41993  1.0000
  H   H57       1.0  0.05797  0.03098  0.42833  1.0000
  H   H58       1.0  0.44037  0.98848  0.14548  1.0000
  H   H59       1.0  0.05263  0.04351  0.46681  1.0000
  C   C46       1.0  0.47353  0.01756  0.26435  1.0000
  N   N2        1.0  0.02171  0.01598  0.40825  1.0000
  C   C47       1.0  0.24728  0.02074  0.17128  1.0000
  H   H60       1.0  0.20531  0.99835  0.23192  1.0000
  H   H61       1.0  0.01795  0.04049  0.46980  1.0000
  S   S13       1.0  0.16336  0.00827  0.35305  1.0000
  H   H62       1.0  0.23465  0.01836  0.18858  1.0000
  C   C48       1.0  0.03694  0.00372  0.42072  1.0000
  H   H63       1.0  0.26566  0.98880  0.10989  1.0000
  H   H64       1.0  0.06700  0.03669  0.35029  1.0000
  H   H65       1.0  0.34418  0.01005  0.00391  1.0000
  H   H66       1.0  0.02743  0.01969  0.31180  1.0000
  H   H67       1.0  0.22832  0.00894  0.30364  1.0000
  H   H68       1.0  0.32782  0.99557  0.04433  1.0000
  H   H69       1.0  0.00187  0.02184  0.44290  1.0000
  H   H70       1.0  0.14550  0.00695  0.44139  1.0000
  H   H71       1.0  0.05716  0.00625  0.42520  1.0000
  H   H72       1.0  0.19872  0.06045  0.18175  1.0000
  H   H73       1.0  0.36840  0.00201  0.98331  1.0000
  H   H74       1.0  0.09495  0.02215  0.46743  1.0000
  H   H75       1.0  0.14614  0.99143  0.42731  1.0000
  H   H76       1.0  0.48282  0.01481  0.16233  1.0000
  H   H77       1.0  0.99923  0.00408  0.38604  1.0000
  H   H78       1.0  0.47158  0.99445  0.09518  1.0000
  H   H79       1.0  0.44187  0.00349  0.10644  1.0000
  H   H80       1.0  0.01232  0.04047  0.37732  1.0000
  Fe  Fe7       1.0  0.37476  0.04602  0.98358  1.0000
  H   H81       1.0  0.46629  0.01125  0.28119  1.0000
  C   C49       1.0  0.35041  0.00047  0.99567  1.0000
  H   H82       1.0  0.16066  0.09582  0.47043  1.0000
  H   H83       1.0  0.18035  0.00543  0.40763  1.0000
  H   H84       1.0  0.10730  0.05452  0.46747  1.0000
  H   H85       1.0  0.37229  0.99255  0.02781  1.0000
  Fe  Fe8       1.0  0.14140  0.98983  0.36413  1.0000
  H   H86       1.0  0.22927  0.99511  0.17839  1.0000
  H   H87       1.0  0.23080  0.99994  0.14469  1.0000
  H   H88       1.0  0.19476  0.00640  0.43770  1.0000
  C   C50       1.0  0.18364  0.00003  0.42654  1.0000
  C   C51       1.0  0.15695  0.99717  0.43975  1.0000
  H   H89       1.0  0.47212  0.00367  0.12288  1.0000
  H   H90       1.0  0.19565  0.99049  0.42383  1.0000
  H   H91       1.0  0.23885  0.98878  0.38641  1.0000
  C   C52       1.0  0.22757  0.98905  0.36892  1.0000
  H   H92       1.0  0.19451  0.07827  0.47476  1.0000
  H   H93       1.0  0.31431  0.98669  0.02151  1.0000
  C   C53       1.0  0.49609  0.98923  0.22024  1.0000
  H   H94       1.0  0.17110  0.99600  0.47776  1.0000
  H   H95       1.0  0.19774  0.10357  0.47477  1.0000
  H   H96       1.0  0.22644  0.08458  0.47676  1.0000
  H   H97       1.0  0.26107  0.11923  0.47269  1.0000
  H   H98       1.0  0.27527  0.20330  0.69207  1.0000
  C   C54       1.0  0.06536  0.01598  0.63728  1.0000
  Fe  Fe9       1.0  0.13372  0.05320  0.52238  1.0000
  S   S14       1.0  0.11621  0.03665  0.54737  1.0000
  Fe  Fe10      1.0  0.11032  0.07485  0.55599  1.0000
  S   S15       1.0  0.09017  0.05988  0.58305  1.0000
  S   S16       1.0  0.10597  0.09746  0.55949  1.0000
  Fe  Fe11      1.0  0.12838  0.04715  0.57974  1.0000
  S   S17       1.0  0.14411  0.03554  0.61485  1.0000
  Fe  Fe12      1.0  0.07975  0.05058  0.54842  1.0000
  S   S18       1.0  0.04255  0.04020  0.54512  1.0000
  S   S19       1.0  0.14955  0.06267  0.55500  1.0000
  S   S20       1.0  0.09623  0.06659  0.52111  1.0000
  Fe  Fe13      1.0  0.36352  0.06105  0.93148  1.0000
  S   S21       1.0  0.38130  0.04355  0.91148  1.0000
  S   S22       1.0  0.34619  0.07707  0.90214  1.0000
  Fe  Fe14      1.0  0.35979  0.03050  0.94055  1.0000
  S   S23       1.0  0.33928  0.01249  0.93089  1.0000
  S   S24       1.0  0.33911  0.04790  0.95911  1.0000
  Fe  Fe15      1.0  0.37287  0.17417  0.79850  1.0000
  S   S25       1.0  0.37721  0.16217  0.76467  1.0000
  S   S26       1.0  0.37843  0.19597  0.78452  1.0000
  Fe  Fe16      1.0  0.36443  0.14878  0.83379  1.0000
  S   S27       1.0  0.36754  0.13563  0.80190  1.0000
  S   S28       1.0  0.36377  0.13921  0.87440  1.0000
  Fe  Fe17      1.0  0.40274  0.14727  0.78872  1.0000
  S   S29       1.0  0.44044  0.13562  0.77531  1.0000
  Fe  Fe18      1.0  0.34139  0.15193  0.78107  1.0000
  S   S30       1.0  0.31048  0.14749  0.75309  1.0000
  S   S31       1.0  0.40081  0.15982  0.82131  1.0000
  S   S32       1.0  0.33584  0.16454  0.81406  1.0000
  Fe  Fe19      1.0  0.15063  0.17535  0.65242  1.0000
  S   S33       1.0  0.13540  0.18097  0.69021  1.0000
  S   S34       1.0  0.16392  0.19096  0.62204  1.0000
  Fe  Fe20      1.0  0.14129  0.14559  0.66532  1.0000
  S   S35       1.0  0.12586  0.14944  0.70479  1.0000
  S   S36       1.0  0.14260  0.12376  0.65584  1.0000
  Fe  Fe21      1.0  0.10273  0.16737  0.68557  1.0000
  S   S37       1.0  0.05953  0.17593  0.68751  1.0000
  Fe  Fe22      1.0  0.16043  0.16256  0.70530  1.0000
  S   S38       1.0  0.18685  0.16501  0.73842  1.0000
  S   S39       1.0  0.11672  0.16289  0.64640  1.0000
  S   S40       1.0  0.17714  0.15755  0.66724  1.0000
  C   C55       1.0  0.45206  0.09300  0.82492  1.0000
  H   H99       1.0  0.05699  0.22167  0.61839  1.0000
  C   C56       1.0  0.03053  0.16691  0.69092  1.0000
  C   C57       1.0  0.02861  0.15565  0.70837  1.0000
  C   C58       1.0  0.11418  0.99556  0.47984  1.0000
  H   H100      1.0  0.26291  0.08565  0.82663  1.0000
  H   H101      1.0  0.04563  0.15184  0.71915  1.0000
  H   H102      1.0  0.18342  0.10892  0.58889  1.0000
  C   C59       1.0  0.47475  0.13850  0.77416  1.0000
  H   H103      1.0  0.43146  0.02005  0.86803  1.0000
  C   C60       1.0  0.27606  0.15251  0.74960  1.0000
  C   C61       1.0  0.26068  0.15910  0.76789  1.0000
  C   C62       1.0  0.23347  0.16275  0.76422  1.0000
  C   C63       1.0  0.22120  0.15992  0.74224  1.0000
  C   C64       1.0  0.23661  0.15340  0.72390  1.0000
  C   C65       1.0  0.26376  0.14969  0.72763  1.0000
  H   H104      1.0  0.26970  0.16130  0.78494  1.0000
  H   H105      1.0  0.22180  0.16774  0.77860  1.0000
  H   H106      1.0  0.22760  0.15112  0.70691  1.0000
  H   H107      1.0  0.27535  0.14457  0.71337  1.0000
  H   H108      1.0  0.02606  0.14278  0.62689  1.0000
  H   H109      1.0  0.10889  0.09352  0.50233  1.0000
  C   C66       1.0  0.35227  0.09424  0.89490  1.0000
  C   C67       1.0  0.34346  0.10076  0.87190  1.0000
  C   C68       1.0  0.34708  0.11446  0.86535  1.0000
  C   C69       1.0  0.35946  0.12185  0.88183  1.0000
  C   C70       1.0  0.36827  0.11535  0.90489  1.0000
  C   C71       1.0  0.36489  0.10157  0.91135  1.0000
  H   H110      1.0  0.33345  0.09524  0.85919  1.0000
  H   H111      1.0  0.33978  0.11938  0.84777  1.0000
  H   H112      1.0  0.37763  0.12101  0.91789  1.0000
  H   H113      1.0  0.37151  0.09673  0.92925  1.0000
  H   H114      1.0  0.99994  0.11594  0.55112  1.0000
  H   H115      1.0  0.03696  0.11296  0.62589  1.0000
  H   H116      1.0  0.45124  0.02204  0.83908  1.0000
  H   H117      1.0  0.03919  0.06828  0.52540  1.0000
  H   H118      1.0  0.03872  0.10674  0.57594  1.0000
  C   C72       1.0  0.11628  0.10472  0.58630  1.0000
  C   C73       1.0  0.11509  0.11879  0.58631  1.0000
  C   C74       1.0  0.12322  0.12484  0.60732  1.0000
  C   C75       1.0  0.13250  0.11685  0.62858  1.0000
  C   C76       1.0  0.13354  0.10280  0.62855  1.0000
  C   C77       1.0  0.12552  0.09675  0.60756  1.0000
  H   H119      1.0  0.10800  0.12504  0.56995  1.0000
  H   H120      1.0  0.12245  0.13567  0.60704  1.0000
  H   H121      1.0  0.14071  0.09653  0.64488  1.0000
  H   H122      1.0  0.12656  0.08592  0.60784  1.0000
  C   C78       1.0  0.35534  0.99910  0.85136  1.0000
  C   C79       1.0  0.37103  0.00842  0.86025  1.0000
  C   C80       1.0  0.36648  0.01240  0.88477  1.0000
  C   C81       1.0  0.34582  0.00736  0.90031  1.0000
  H   H123      1.0  0.05555  0.02628  0.63538  1.0000
  H   H124      1.0  0.47898  0.20932  0.76935  1.0000
  H   H125      1.0  0.38675  0.01254  0.84815  1.0000
  H   H126      1.0  0.37906  0.01931  0.89163  1.0000
  H   H127      1.0  0.46992  0.00897  0.89039  1.0000
  H   H128      1.0  0.29177  0.02491  0.90296  1.0000
  C   C82       1.0  0.19483  0.10179  0.53950  1.0000
  C   C83       1.0  0.05058  0.00767  0.58712  1.0000
  C   C84       1.0  0.14042  0.00920  0.63238  1.0000
  C   C85       1.0  0.14639  0.01825  0.61157  1.0000
  C   C86       1.0  0.15377  0.01344  0.58825  1.0000
  C   C87       1.0  0.15475  0.99963  0.58565  1.0000
  H   H129      1.0  0.41961  0.12195  0.87331  1.0000
  H   H130      1.0  0.13498  0.01291  0.65047  1.0000
  H   H131      1.0  0.15915  0.02035  0.57229  1.0000
  H   H132      1.0  0.02204  0.13089  0.68109  1.0000
  H   H133      1.0  0.42716  0.20839  0.76064  1.0000
  C   C88       1.0  0.16455  0.21359  0.64917  1.0000
  C   C89       1.0  0.16929  0.20784  0.62613  1.0000
  C   C90       1.0  0.17837  0.21578  0.60494  1.0000
  Fe  Fe23      1.0  0.41339  0.04217  0.93916  1.0000
  H   H134      1.0  0.15802  0.20745  0.66576  1.0000
  H   H135      1.0  0.18225  0.21145  0.58713  1.0000
  C   C91       1.0  0.38003  0.22270  0.83790  1.0000
  C   C92       1.0  0.37936  0.21051  0.82669  1.0000
  C   C93       1.0  0.38058  0.21056  0.80033  1.0000
  C   C94       1.0  0.38267  0.22276  0.78544  1.0000
  H   H136      1.0  0.00833  0.10318  0.66715  1.0000
  H   H137      1.0  0.37870  0.22267  0.85828  1.0000
  H   H138      1.0  0.37745  0.20118  0.83840  1.0000
  H   H139      1.0  0.10309  0.02858  0.49629  1.0000
  H   H140      1.0  0.12351  0.00647  0.51208  1.0000
  N   N3        1.0  0.05250  0.12081  0.65842  1.0000
  C   C95       1.0  0.07089  0.11563  0.67931  1.0000
  C   C96       1.0  0.05493  0.11150  0.63745  1.0000
  C   C97       1.0  0.06124  0.13437  0.64767  1.0000
  C   C98       1.0  0.09085  0.99788  0.56303  1.0000
  H   H141      1.0  0.47586  0.19754  0.80955  1.0000
  C   C99       1.0  0.07127  0.12437  0.70184  1.0000
  C   C100      1.0  0.04766  0.14071  0.62328  1.0000
  C   C101      1.0  0.06034  0.09622  0.64518  1.0000
  C   C102      1.0  0.05630  0.08787  0.62324  1.0000
  C   C103      1.0  0.09066  0.11801  0.72151  1.0000
  C   C104      1.0  0.05894  0.15409  0.61402  1.0000
  H   H142      1.0  0.09157  0.11435  0.67133  1.0000
  H   H143      1.0  0.06632  0.10548  0.68763  1.0000
  H   H144      1.0  0.43824  0.21125  0.72818  1.0000
  H   H145      1.0  0.07184  0.11406  0.62412  1.0000
  H   H146      1.0  0.08309  0.13374  0.64357  1.0000
  H   H147      1.0  0.05745  0.14192  0.66171  1.0000
  C   C105      1.0  0.21156  0.00005  0.65860  1.0000
  S   S41       1.0  0.15940  0.04744  0.48842  1.0000
  H   H148      1.0  0.06142  0.01439  0.67853  1.0000
  C   C106      1.0  0.22959  0.10993  0.49551  1.0000
  H   H149      1.0  0.07780  0.13449  0.69558  1.0000
  H   H150      1.0  0.23132  0.11693  0.51026  1.0000
  H   H151      1.0  0.05073  0.13410  0.60764  1.0000
  H   H152      1.0  0.08125  0.09413  0.65082  1.0000
  C   C107      1.0  0.02411  0.12281  0.66806  1.0000
  H   H153      1.0  0.00075  0.99037  0.64781  1.0000
  H   H154      1.0  0.19097  0.07524  0.52317  1.0000
  H   H155      1.0  0.44313  0.08375  0.82069  1.0000
  H   H156      1.0  0.08476  0.10795  0.72931  1.0000
  H   H157      1.0  0.11110  0.11702  0.71293  1.0000
  H   H158      1.0  0.48394  0.20689  0.73707  1.0000
  H   H159      1.0  0.08028  0.15251  0.60840  1.0000
  H   H160      1.0  0.09891  0.20919  0.72316  1.0000
  N   N4        1.0  0.23397  0.20186  0.70422  1.0000
  C   C108      1.0  0.26314  0.20056  0.70955  1.0000
  C   C109      1.0  0.22765  0.21540  0.69001  1.0000
  C   C110      1.0  0.21832  0.20040  0.72904  1.0000
  C   C111      1.0  0.22678  0.19108  0.68828  1.0000
  C   C112      1.0  0.27420  0.18665  0.72139  1.0000
  C   C113      1.0  0.18777  0.20291  0.72753  1.0000
  C   C114      1.0  0.30403  0.18647  0.72494  1.0000
  C   C115      1.0  0.17439  0.20170  0.75394  1.0000
  H   H161      1.0  0.26759  0.20786  0.72299  1.0000
  H   H162      1.0  0.24095  0.21672  0.67283  1.0000
  C   C116      1.0  0.07231  0.99588  0.58640  1.0000
  H   H163      1.0  0.22532  0.20705  0.74258  1.0000
  H   H164      1.0  0.22181  0.19002  0.73831  1.0000
  H   H165      1.0  0.22763  0.18109  0.69946  1.0000
  H   H166      1.0  0.20580  0.19289  0.68268  1.0000
  H   H167      1.0  0.26467  0.18429  0.74030  1.0000
  H   H168      1.0  0.27089  0.17852  0.70939  1.0000
  H   H169      1.0  0.17966  0.19536  0.71662  1.0000
  H   H170      1.0  0.18195  0.21306  0.71846  1.0000
  H   H171      1.0  0.24748  0.17735  0.63190  1.0000
  C   C117      1.0  0.24354  0.18978  0.66334  1.0000
  H   H172      1.0  0.30848  0.19412  0.73765  1.0000
  H   H173      1.0  0.31139  0.17645  0.73368  1.0000
  H   H174      1.0  0.31482  0.18837  0.70643  1.0000
  H   H175      1.0  0.15254  0.20301  0.75243  1.0000
  H   H176      1.0  0.17940  0.19160  0.76378  1.0000
  H   H177      1.0  0.18073  0.20952  0.76537  1.0000
  H   H178      1.0  0.06071  0.01722  0.58569  1.0000
  H   H179      1.0  0.03524  0.08891  0.61795  1.0000
  H   H180      1.0  0.43215  0.07421  0.85680  1.0000
  H   H181      1.0  0.44306  0.19629  0.84529  1.0000
  H   H182      1.0  0.15200  0.08069  0.48900  1.0000
  H   H183      1.0  0.26496  0.18786  0.66686  1.0000
  C   C118      1.0  0.42564  0.09560  0.86572  1.0000
  H   H184      1.0  0.18521  0.11212  0.54059  1.0000
  H   H185      1.0  0.45254  0.06287  0.94328  1.0000
  H   H186      1.0  0.20657  0.03515  0.64744  1.0000
  H   H187      1.0  0.24053  0.00502  0.70440  1.0000
  C   C119      1.0  0.47239  0.05828  0.94527  1.0000
  H   H188      1.0  0.21505  0.09914  0.58802  1.0000
  H   H189      1.0  0.42189  0.18725  0.82779  1.0000
  C   C120      1.0  0.19323  0.09869  0.58756  1.0000
  N   N5        1.0  0.46961  0.18965  0.75981  1.0000
  H   H190      1.0  0.00308  0.02118  0.62695  1.0000
  H   H191      1.0  0.39978  0.00196  0.93698  1.0000
  C   C121      1.0  0.45602  0.18431  0.73846  1.0000
  C   C122      1.0  0.45462  0.18584  0.78442  1.0000
  H   H192      1.0  0.20737  0.21604  0.68265  1.0000
  C   C123      1.0  0.07322  0.21684  0.63031  1.0000
  C   C124      1.0  0.45483  0.16882  0.73985  1.0000
  C   C125      1.0  0.44285  0.18919  0.83049  1.0000
  C   C126      1.0  0.43755  0.16480  0.71939  1.0000
  H   H193      1.0  0.11092  0.21214  0.66486  1.0000
  C   C127      1.0  0.48667  0.14623  0.79067  1.0000
  C   C128      1.0  0.21173  0.07814  0.48683  1.0000
  C   C129      1.0  0.09803  0.01943  0.48787  1.0000
  H   H194      1.0  0.46568  0.18762  0.71987  1.0000
  H   H195      1.0  0.43501  0.18849  0.73775  1.0000
  H   H196      1.0  0.43318  0.18519  0.78117  1.0000
  H   H197      1.0  0.46157  0.17552  0.79215  1.0000
  H   H198      1.0  0.22223  0.08194  0.52400  1.0000
  H   H199      1.0  0.48201  0.12608  0.74338  1.0000
  H   H200      1.0  0.05668  0.16106  0.62915  1.0000
  H   H201      1.0  0.45687  0.09822  0.80594  1.0000
  H   H202      1.0  0.44635  0.16489  0.75846  1.0000
  H   H203      1.0  0.21094  0.05679  0.49949  1.0000
  H   H204      1.0  0.26525  0.03481  0.91764  1.0000
  H   H205      1.0  0.45395  0.17962  0.83715  1.0000
  H   H206      1.0  0.21071  0.01713  0.68241  1.0000
  H   H207      1.0  0.41700  0.16941  0.72145  1.0000
  C   C130      1.0  0.12072  0.09634  0.48480  1.0000
  H   H208      1.0  0.43671  0.15370  0.72123  1.0000
  N   N6        1.0  0.43269  0.10184  0.83946  1.0000
  C   C131      1.0  0.20366  0.08285  0.51330  1.0000
  C   C132      1.0  0.40817  0.10561  0.82439  1.0000
  C   C133      1.0  0.44585  0.11464  0.84224  1.0000
  C   C134      1.0  0.47038  0.20465  0.75383  1.0000
  C   C135      1.0  0.42826  0.12576  0.85472  1.0000
  C   C136      1.0  0.39657  0.09431  0.81120  1.0000
  C   C137      1.0  0.36982  0.09900  0.79998  1.0000
  H   H209      1.0  0.44400  0.20502  0.80069  1.0000
  C   C138      1.0  0.44428  0.13754  0.85933  1.0000
  H   H210      1.0  0.48735  0.07572  0.95907  1.0000
  C   C139      1.0  0.14076  0.99542  0.62962  1.0000
  H   H211      1.0  0.39209  0.11012  0.83652  1.0000
  H   H212      1.0  0.41232  0.11360  0.80893  1.0000
  H   H213      1.0  0.45314  0.11914  0.82342  1.0000
  H   H214      1.0  0.46369  0.11252  0.85382  1.0000
  H   H215      1.0  0.11910  0.22234  0.73015  1.0000
  H   H216      1.0  0.41186  0.12970  0.84233  1.0000
  H   H217      1.0  0.41007  0.09138  0.79525  1.0000
  H   H218      1.0  0.39373  0.08530  0.82434  1.0000
  H   H219      1.0  0.36186  0.09065  0.79105  1.0000
  H   H220      1.0  0.35529  0.10222  0.81488  1.0000
  H   H221      1.0  0.37209  0.10750  0.78522  1.0000
  C   C140      1.0  0.42254  0.07462  0.89597  1.0000
  H   H222      1.0  0.15198  0.98809  0.51561  1.0000
  H   H223      1.0  0.33042  0.23118  0.77543  1.0000
  H   H224      1.0  0.32600  0.21160  0.79667  1.0000
  H   H225      1.0  0.25744  0.99807  0.74656  1.0000
  C   C141      1.0  0.41920  0.08063  0.86871  1.0000
  H   H226      1.0  0.24330  0.06330  0.49948  1.0000
  C   C142      1.0  0.02093  0.06397  0.52199  1.0000
  H   H227      1.0  0.00915  0.18080  0.66437  1.0000
  S   S42       1.0  0.45495  0.03621  0.92571  1.0000
  H   H228      1.0  0.08379  0.19632  0.64678  1.0000
  C   C143      1.0  0.03294  0.22603  0.67296  1.0000
  H   H229      1.0  0.27251  0.98725  0.72389  1.0000
  C   C144      1.0  0.20327  0.01473  0.66427  1.0000
  C   C145      1.0  0.45542  0.19532  0.80581  1.0000
  C   C146      1.0  0.25356  0.99032  0.73386  1.0000
  H   H230      1.0  0.18054  0.00198  0.70207  1.0000
  C   C147      1.0  0.05547  0.19530  0.61845  1.0000
  C   C148      1.0  0.33520  0.99369  0.86715  1.0000
  H   H231      1.0  0.23553  0.02399  0.64201  1.0000
  H   H232      1.0  0.32182  0.21701  0.82809  1.0000
  N   N7        1.0  0.31782  0.05408  0.84976  1.0000
  C   C149      1.0  0.31566  0.04707  0.87615  1.0000
  C   C150      1.0  0.34636  0.05699  0.84355  1.0000
  C   C151      1.0  0.30181  0.06746  0.84993  1.0000
  C   C152      1.0  0.30730  0.04615  0.83002  1.0000
  C   C153      1.0  0.31043  0.03056  0.83482  1.0000
  C   C154      1.0  0.28692  0.04577  0.88718  1.0000
  C   C155      1.0  0.30395  0.07718  0.82550  1.0000
  C   C156      1.0  0.36671  0.04476  0.84245  1.0000
  C   C157      1.0  0.39505  0.04914  0.83962  1.0000
  C   C158      1.0  0.30397  0.02383  0.81148  1.0000
  C   C159      1.0  0.28579  0.03497  0.90939  1.0000
  H   H233      1.0  0.03070  0.00579  0.65036  1.0000
  H   H234      1.0  0.32602  0.05254  0.88961  1.0000
  H   H235      1.0  0.32612  0.03692  0.87736  1.0000
  H   H236      1.0  0.34840  0.06262  0.82462  1.0000
  H   H237      1.0  0.35314  0.06359  0.85734  1.0000
  H   H238      1.0  0.30746  0.07296  0.86594  1.0000
  H   H239      1.0  0.28036  0.06592  0.85335  1.0000
  H   H240      1.0  0.28568  0.04872  0.82776  1.0000
  H   H241      1.0  0.31667  0.04905  0.81112  1.0000
  H   H242      1.0  0.29678  0.02698  0.85053  1.0000
  H   H243      1.0  0.33070  0.02684  0.84002  1.0000
  H   H244      1.0  0.28592  0.09613  0.80885  1.0000
  H   H245      1.0  0.27348  0.04329  0.87267  1.0000
  H   H246      1.0  0.30105  0.07197  0.80843  1.0000
  H   H247      1.0  0.32366  0.08141  0.82371  1.0000
  H   H248      1.0  0.36551  0.03786  0.85983  1.0000
  H   H249      1.0  0.36337  0.03927  0.82582  1.0000
  H   H250      1.0  0.39995  0.05407  0.85649  1.0000
  H   H251      1.0  0.40912  0.04019  0.83801  1.0000
  H   H252      1.0  0.39755  0.05618  0.82239  1.0000
  H   H253      1.0  0.30563  0.01274  0.81587  1.0000
  H   H254      1.0  0.28345  0.02697  0.80570  1.0000
  H   H255      1.0  0.31824  0.02638  0.79555  1.0000
  H   H256      1.0  0.25043  0.22804  0.71175  1.0000
  C   C160      1.0  0.03436  0.10249  0.55817  1.0000
  H   H257      1.0  0.04745  0.09256  0.66131  1.0000
  C   C161      1.0  0.12068  0.00853  0.49145  1.0000
  C   C162      1.0  0.44328  0.21238  0.74797  1.0000
  H   H258      1.0  0.41803  0.06392  0.89772  1.0000
  C   C163      1.0  0.16034  0.09659  0.51230  1.0000
  H   H259      1.0  0.04645  0.10744  0.54250  1.0000
  H   H260      1.0  0.39822  0.07979  0.86427  1.0000
  H   H261      1.0  0.18659  0.09216  0.60436  1.0000
  C   C164      1.0  0.01504  0.99499  0.60851  1.0000
  H   H262      1.0  0.04046  0.09156  0.55972  1.0000
  H   H263      1.0  0.44329  0.07507  0.90159  1.0000
  H   H264      1.0  0.09072  0.21530  0.61703  1.0000
  H   H265      1.0  0.47482  0.16375  0.73677  1.0000
  H   H266      1.0  0.29912  0.03706  0.92434  1.0000
  H   H267      1.0  0.38319  0.22292  0.76504  1.0000
  H   H268      1.0  0.07962  0.99846  0.54545  1.0000
  H   H269      1.0  0.21596  0.22774  0.72157  1.0000
  H   H270      1.0  0.15194  0.08973  0.52767  1.0000
  C   C165      1.0  0.22458  0.06379  0.48922  1.0000
  H   H271      1.0  0.16408  0.23187  0.66814  1.0000
  C   C166      1.0  0.47361  0.01545  0.87277  1.0000
  H   H272      1.0  0.05136  0.12543  0.71139  1.0000
  C   C167      1.0  0.16815  0.22738  0.65054  1.0000
  H   H273      1.0  0.31411  0.99408  0.90331  1.0000
  H   H274      1.0  0.43566  0.99954  0.93642  1.0000
  H   H275      1.0  0.27911  0.05546  0.89422  1.0000
  H   H276      1.0  0.07085  0.19437  0.60299  1.0000
  H   H277      1.0  0.44479  0.00539  0.85330  1.0000
  C   C168      1.0  0.28768  0.22266  0.80369  1.0000
  C   C169      1.0  0.38332  0.23485  0.79658  1.0000
  H   H278      1.0  0.09079  0.12451  0.73729  1.0000
  C   C170      1.0  0.17731  0.23525  0.62905  1.0000
  H   H279      1.0  0.46060  0.13420  0.87225  1.0000
  C   C171      1.0  0.31159  0.21309  0.81264  1.0000
  C   C172      1.0  0.09882  0.23566  0.63817  1.0000
  H   H280      1.0  0.44174  0.09677  0.87878  1.0000
  S   S43       1.0  0.36040  0.99484  0.82014  1.0000
  C   C173      1.0  0.04533  0.00534  0.63411  1.0000
  C   C174      1.0  0.30285  0.19925  0.82256  1.0000
  H   H281      1.0  0.27924  0.21789  0.78814  1.0000
  H   H282      1.0  0.06902  0.09107  0.60651  1.0000
  H   H283      1.0  0.40804  0.10120  0.87396  1.0000
  H   H284      1.0  0.11795  0.23007  0.63336  1.0000
  S   S44       1.0  0.39762  0.06060  0.95738  1.0000
  H   H285      1.0  0.20572  0.02298  0.62480  1.0000
  H   H286      1.0  0.24243  0.10067  0.50053  1.0000
  H   H287      1.0  0.21417  0.17971  0.64484  1.0000
  H   H288      1.0  0.02329  0.22019  0.65970  1.0000
  H   H289      1.0  0.24063  0.19905  0.65031  1.0000
  C   C175      1.0  0.14797  0.99061  0.60626  1.0000
  H   H290      1.0  0.48210  0.06776  0.82912  1.0000
  C   C176      1.0  0.11331  0.21640  0.71495  1.0000
  C   C177      1.0  0.21351  0.02478  0.64331  1.0000
  C   C178      1.0  0.18261  0.22930  0.60646  1.0000
  H   H291      1.0  0.04817  0.15879  0.59733  1.0000
  C   C179      1.0  0.18560  0.09297  0.56346  1.0000
  H   H292      1.0  0.19474  0.08255  0.56363  1.0000
  H   H293      1.0  0.23835  0.16846  0.66177  1.0000
  H   H294      1.0  0.40889  0.08008  0.90908  1.0000
  H   H295      1.0  0.29388  0.19442  0.80737  1.0000
  H   H296      1.0  0.32043  0.19277  0.82913  1.0000
  H   H297      1.0  0.28837  0.20002  0.83880  1.0000
  C   C180      1.0  0.23534  0.17809  0.64971  1.0000
  H   H298      1.0  0.16382  0.09259  0.56464  1.0000
  H   H299      1.0  0.16055  0.99594  0.56758  1.0000
  H   H300      1.0  0.13533  0.98855  0.64551  1.0000
  H   H301      1.0  0.03730  0.20086  0.61083  1.0000
  H   H302      1.0  0.29093  0.23200  0.84936  1.0000
  C   C181      1.0  0.47865  0.08865  0.83778  1.0000
  C   C182      1.0  0.01147  0.11031  0.68128  1.0000
  C   C183      1.0  0.20017  0.10681  0.49382  1.0000
  C   C184      1.0  0.01765  0.05042  0.52955  1.0000
  C   C185      1.0  0.06587  0.20241  0.63974  1.0000
  H   H303      1.0  0.08026  0.21002  0.68105  1.0000
  H   H304      1.0  0.08471  0.99508  0.60322  1.0000
  C   C186      1.0  0.41784  0.99997  0.92484  1.0000
  H   H305      1.0  0.20130  0.99883  0.64087  1.0000
  H   H306      1.0  0.05059  0.20233  0.65528  1.0000
  C   C187      1.0  0.23010  0.22779  0.70500  1.0000
  H   H307      1.0  0.18132  0.01643  0.66516  1.0000
  C   C188      1.0  0.28329  0.08910  0.82610  1.0000
  H   H308      1.0  0.12879  0.99043  0.71472  1.0000
  H   H309      1.0  0.28563  0.09466  0.84290  1.0000
  H   H310      1.0  0.47451  0.15127  0.80461  1.0000
  H   H311      1.0  0.21636  0.10257  0.54170  1.0000
  H   H312      1.0  0.00213  0.10130  0.53397  1.0000
  C   C189      1.0  0.33022  0.99797  0.89144  1.0000
  C   C190      1.0  0.47860  0.04521  0.93861  1.0000
  H   H313      1.0  0.45262  0.14213  0.84119  1.0000
  H   H314      1.0  0.06181  0.07711  0.62892  1.0000
  C   C191      1.0  0.00791  0.17202  0.67775  1.0000
  C   C192      1.0  0.09284  0.21785  0.67202  1.0000
  S   S45       1.0  0.39334  0.02769  0.96691  1.0000
  H   H315      1.0  0.10115  0.00725  0.56341  1.0000
  H   H316      1.0  0.09649  0.99195  0.49086  1.0000
  H   H317      1.0  0.44626  0.22909  0.77079  1.0000
  C   C193      1.0  0.38192  0.23495  0.82286  1.0000
  H   H318      1.0  0.23315  0.99941  0.65335  1.0000
  H   H319      1.0  0.08835  0.00375  0.66585  1.0000
  H   H320      1.0  0.44596  0.16797  0.70028  1.0000
  H   H321      1.0  0.03472  0.19535  0.72195  1.0000
  H   H322      1.0  0.43108  0.14529  0.86824  1.0000
  H   H323      1.0  0.11602  0.23300  0.68701  1.0000
  H   H324      1.0  0.09109  0.02163  0.66538  1.0000
  H   H325      1.0  0.18803  0.11656  0.49404  1.0000
  H   H326      1.0  0.01103  0.12653  0.65230  1.0000
  C   C194      1.0  0.01763  0.20039  0.73203  1.0000
  C   C195      1.0  0.00420  0.14977  0.71299  1.0000
  N   N8        1.0  0.19000  0.09675  0.51424  1.0000
  C   C196      1.0  0.44885  0.01572  0.85724  1.0000
  H   H327      1.0  0.03989  0.00810  0.56921  1.0000
  C   C197      1.0  0.00492  0.10497  0.55269  1.0000
  H   H328      1.0  0.16338  0.99485  0.67909  1.0000
  C   C198      1.0  0.49212  0.06557  0.95414  1.0000
  C   C199      1.0  0.00023  0.07207  0.51042  1.0000
  H   H329      1.0  0.05037  0.18507  0.62597  1.0000
  H   H330      1.0  0.00255  0.02118  0.56865  1.0000
  H   H331      1.0  0.41916  0.00850  0.91006  1.0000
  H   H332      1.0  0.14951  0.99605  0.73802  1.0000
  C   C200      1.0  0.49335  0.07690  0.82549  1.0000
  H   H333      1.0  0.47561  0.08546  0.85819  1.0000
  H   H334      1.0  0.27198  0.22240  0.81906  1.0000
  H   H335      1.0  0.02383  0.10520  0.69649  1.0000
  C   C201      1.0  0.01372  0.01991  0.60843  1.0000
  H   H336      1.0  0.49422  0.99983  0.85313  1.0000
  C   C202      1.0  0.17947  0.99260  0.69278  1.0000
  N   N9        1.0  0.03116  0.00696  0.60955  1.0000
  H   H337      1.0  0.08198  0.01547  0.62296  1.0000
  H   H338      1.0  0.02054  0.21130  0.73109  1.0000
  H   H339      1.0  0.02607  0.02870  0.60507  1.0000
  C   C203      1.0  0.14506  0.98735  0.72787  1.0000
  H   H340      1.0  0.13890  0.01273  0.48264  1.0000
  H   H341      1.0  0.00278  0.14131  0.72710  1.0000
  H   H342      1.0  0.13130  0.21071  0.70771  1.0000
  H   H343      1.0  0.11816  0.10742  0.48051  1.0000
  N   N10       1.0  0.20522  0.98889  0.67879  1.0000
  H   H344      1.0  0.49606  0.07933  0.80477  1.0000
  H   H345      1.0  0.00668  0.99505  0.58948  1.0000
  H   H346      1.0  0.47558  0.02589  0.87728  1.0000
  C   C204      1.0  0.07723  0.01375  0.66339  1.0000
  H   H347      1.0  0.10608  0.98930  0.56289  1.0000
  H   H348      1.0  0.15063  0.10674  0.51514  1.0000
  H   H349      1.0  0.42496  0.23274  0.74451  1.0000
  H   H350      1.0  0.01733  0.19614  0.75211  1.0000
  H   H351      1.0  0.49159  0.09718  0.83590  1.0000
  C   C205      1.0  0.44391  0.22739  0.75071  1.0000
  C   C206      1.0  0.05483  0.23402  0.65862  1.0000
  H   H352      1.0  0.05589  0.99518  0.63707  1.0000
  H   H353      1.0  0.00265  0.08256  0.50475  1.0000
  H   H354      1.0  0.07938  0.01603  0.49736  1.0000
  H   H355      1.0  0.30229  0.23162  0.75687  1.0000
  C   C207      1.0  0.10100  0.22585  0.69370  1.0000
  C   C208      1.0  0.49083  0.13206  0.75624  1.0000
  N   N11       1.0  0.07943  0.22595  0.65013  1.0000
  C   C209      1.0  0.15005  0.09185  0.48785  1.0000
  H   H356      1.0  0.18983  0.23523  0.58983  1.0000
  H   H357      1.0  0.25521  0.23149  0.76309  1.0000
  H   H358      1.0  0.08355  0.23150  0.70200  1.0000
  C   C210      1.0  0.41629  0.98688  0.91255  1.0000
  C   C211      1.0  0.01136  0.23548  0.68417  1.0000
  H   H359      1.0  0.04088  0.21913  0.68877  1.0000
  H   H360      1.0  0.39796  0.98760  0.90168  1.0000
  C   C212      1.0  0.23274  0.99599  0.71495  1.0000
  H   H361      1.0  0.46039  0.23171  0.73886  1.0000
  H   H362      1.0  0.21455  0.99892  0.72611  1.0000
  Fe  Fe24      1.0  0.10953  0.44927  0.29586  1.0000
  S   S46       1.0  0.11282  0.44968  0.33755  1.0000
  S   S47       1.0  0.06878  0.45163  0.27730  1.0000
  Fe  Fe25      1.0  0.17162  0.45084  0.28629  1.0000
  S   S48       1.0  0.17778  0.45188  0.32808  1.0000
  S   S49       1.0  0.20402  0.44961  0.25341  1.0000
  Fe  Fe26      1.0  0.14919  0.43570  0.33463  1.0000
  S   S50       1.0  0.15533  0.41702  0.36214  1.0000
  Fe  Fe27      1.0  0.14072  0.46592  0.32789  1.0000
  S   S51       1.0  0.14433  0.43380  0.29306  1.0000
  S   S52       1.0  0.13621  0.46626  0.28594  1.0000
  C   C213      1.0  0.02636  0.46575  0.34518  1.0000
  Fe  Fe28      1.0  0.35743  0.44627  0.17457  1.0000
  S   S53       1.0  0.35094  0.45679  0.13569  1.0000
  S   S54       1.0  0.32574  0.44772  0.20813  1.0000
  Fe  Fe29      1.0  0.41757  0.43889  0.15937  1.0000
  S   S55       1.0  0.41365  0.44876  0.11998  1.0000
  S   S56       1.0  0.45862  0.42917  0.17038  1.0000
  Fe  Fe30      1.0  0.39027  0.46519  0.13853  1.0000
  Fe  Fe31      1.0  0.37498  0.43930  0.12014  1.0000
  S   S57       1.0  0.36029  0.43338  0.08314  1.0000
  S   S58       1.0  0.39610  0.45599  0.17818  1.0000
  S   S59       1.0  0.37963  0.42803  0.15881  1.0000
  H   H363      1.0  0.09508  0.37329  0.43590  1.0000
  C   C214      1.0  0.44571  0.34808  0.03185  1.0000
  H   H364      1.0  0.33889  0.48628  0.03419  1.0000
  S   S60       1.0  0.42098  0.39332  0.00978  1.0000
  H   H365      1.0  0.04062  0.41136  0.45270  1.0000
  H   H366      1.0  0.35577  0.47810  0.06063  1.0000
  C   C215      1.0  0.11486  0.44616  0.47031  1.0000
  C   C216      1.0  0.00348  0.43446  0.31208  1.0000
  H   H367      1.0  0.99999  0.42201  0.47327  1.0000
  H   H368      1.0  0.25837  0.48044  0.16932  1.0000
  H   H369      1.0  0.31925  0.46872  0.08669  1.0000
  H   H370      1.0  0.46044  0.42314  0.09358  1.0000
  H   H371      1.0  0.11814  0.42469  0.47201  1.0000
  C   C217      1.0  0.37781  0.42236  0.06291  1.0000
  C   C218      1.0  0.36791  0.42114  0.03900  1.0000
  C   C219      1.0  0.38108  0.41245  0.02237  1.0000
  C   C220      1.0  0.40420  0.40479  0.02960  1.0000
  C   C221      1.0  0.41428  0.40613  0.05341  1.0000
  C   C222      1.0  0.40121  0.41490  0.06997  1.0000
  H   H372      1.0  0.34978  0.42684  0.03340  1.0000
  H   H373      1.0  0.37308  0.41150  0.00415  1.0000
  H   H374      1.0  0.43210  0.40022  0.05922  1.0000
  H   H375      1.0  0.40900  0.41573  0.08833  1.0000
  C   C223      1.0  0.03565  0.44733  0.28622  1.0000
  H   H376      1.0  0.25617  0.45990  0.14266  1.0000
  H   H377      1.0  0.10912  0.38137  0.46045  1.0000
  H   H378      1.0  0.47118  0.40871  0.98839  1.0000
  H   H379      1.0  0.04564  0.44069  0.46431  1.0000
  C   C224      1.0  0.23809  0.44929  0.24134  1.0000
  C   C225      1.0  0.24387  0.44707  0.21577  1.0000
  C   C226      1.0  0.27030  0.44620  0.20555  1.0000
  C   C227      1.0  0.29175  0.44785  0.22050  1.0000
  C   C228      1.0  0.28599  0.45007  0.24611  1.0000
  C   C229      1.0  0.25955  0.45075  0.25644  1.0000
  H   H380      1.0  0.22772  0.44581  0.20377  1.0000
  H   H381      1.0  0.27403  0.44422  0.18605  1.0000
  H   H382      1.0  0.30215  0.45136  0.25807  1.0000
  H   H383      1.0  0.25580  0.45247  0.27610  1.0000
  C   C230      1.0  0.16169  0.41768  0.39451  1.0000
  C   C231      1.0  0.16247  0.40574  0.41070  1.0000
  C   C232      1.0  0.16665  0.40589  0.43672  1.0000
  C   C233      1.0  0.17092  0.41794  0.44665  1.0000
  C   C234      1.0  0.17094  0.42982  0.43028  1.0000
  C   C235      1.0  0.16590  0.42974  0.40442  1.0000
  H   H384      1.0  0.15948  0.39635  0.40315  1.0000
  H   H385      1.0  0.16698  0.39664  0.44902  1.0000
  H   H386      1.0  0.17477  0.43914  0.43765  1.0000
  H   H387      1.0  0.16563  0.43899  0.39211  1.0000
  H   H388      1.0  0.99948  0.42699  0.32755  1.0000
  H   H389      1.0  0.04584  0.43314  0.31770  1.0000
  H   H390      1.0  0.30573  0.47591  0.13167  1.0000
  S   S61       1.0  0.40230  0.48602  0.12629  1.0000
  H   H391      1.0  0.34766  0.46035  0.00368  1.0000
  H   H392      1.0  0.28627  0.46958  0.17849  1.0000
  C   C236      1.0  0.36053  0.46890  0.00011  1.0000
  H   H393      1.0  0.02576  0.43553  0.44021  1.0000
  H   H394      1.0  0.37759  0.45066  0.03354  1.0000
  H   H395      1.0  0.47476  0.38400  0.99158  1.0000
  C   C237      1.0  0.38676  0.45998  0.03740  1.0000
  H   H396      1.0  0.27812  0.45921  0.11510  1.0000
  C   C238      1.0  0.28026  0.47879  0.16610  1.0000
  H   H397      1.0  0.33220  0.48239  0.15912  1.0000
  H   H398      1.0  0.41984  0.43629  0.03086  1.0000
  C   C239      1.0  0.03475  0.43233  0.45865  1.0000
  H   H399      1.0  0.03488  0.47077  0.36037  1.0000
  H   H400      1.0  0.26617  0.48136  0.25947  1.0000
  H   H401      1.0  0.47488  0.38313  0.02505  1.0000
  S   S62       1.0  0.12621  0.48288  0.35131  1.0000
  C   C240      1.0  0.10252  0.43290  0.46817  1.0000
  H   H402      1.0  0.47530  0.45547  0.14856  1.0000
  H   H403      1.0  0.42385  0.44220  0.06150  1.0000
  H   H404      1.0  0.33519  0.45599  0.05072  1.0000
  H   H405      1.0  0.34756  0.48476  0.11249  1.0000
  C   C241      1.0  0.38832  0.48410  0.01891  1.0000
  C   C242      1.0  0.49018  0.43615  0.16529  1.0000
  C   C243      1.0  0.27994  0.48391  0.22020  1.0000
  H   H406      1.0  0.03321  0.47037  0.32645  1.0000
  C   C244      1.0  0.30819  0.46994  0.06895  1.0000
  H   H407      1.0  0.42769  0.46552  0.03992  1.0000
  C   C245      1.0  0.28481  0.47528  0.13830  1.0000
  N   N12       1.0  0.37172  0.47219  0.02449  1.0000
  H   H408      1.0  0.47712  0.43094  0.11675  1.0000
  C   C246      1.0  0.42836  0.44410  0.04086  1.0000
  H   H409      1.0  0.42165  0.45936  0.01039  1.0000
  H   H410      1.0  0.31426  0.46684  0.02980  1.0000
  C   C247      1.0  0.41699  0.45807  0.03095  1.0000
  H   H411      1.0  0.32476  0.47678  0.19068  1.0000
  N   N13       1.0  0.07642  0.42035  0.43813  1.0000
  C   C248      1.0  0.06594  0.42197  0.41181  1.0000
  H   H412      1.0  0.10016  0.40605  0.46235  1.0000
  C   C249      1.0  0.09200  0.43227  0.44142  1.0000
  C   C250      1.0  0.09449  0.40774  0.44223  1.0000
  C   C251      1.0  0.08326  0.39457  0.43568  1.0000
  C   C252      1.0  0.08714  0.42139  0.38976  1.0000
  H   H413      1.0  0.45020  0.44327  0.03752  1.0000
  C   C253      1.0  0.02987  0.43797  0.30661  1.0000
  H   H414      1.0  0.29940  0.48044  0.06587  1.0000
  C   C254      1.0  0.10362  0.38263  0.44033  1.0000
  C   C255      1.0  0.07404  0.42235  0.36428  1.0000
  H   H415      1.0  0.38492  0.46001  0.05840  1.0000
  H   H416      1.0  0.05441  0.43182  0.40844  1.0000
  H   H417      1.0  0.05153  0.41433  0.40969  1.0000
  H   H418      1.0  0.40340  0.48279  0.05765  1.0000
  H   H419      1.0  0.34756  0.47763  0.99209  1.0000
  H   H420      1.0  0.08028  0.44184  0.43581  1.0000
  H   H421      1.0  0.10987  0.43231  0.42840  1.0000
  H   H422      1.0  0.11343  0.40891  0.43129  1.0000
  H   H423      1.0  0.29046  0.45353  0.14569  1.0000
  H   H424      1.0  0.07815  0.39512  0.41555  1.0000
  H   H425      1.0  0.44954  0.36679  0.00959  1.0000
  H   H426      1.0  0.10007  0.42987  0.38929  1.0000
  H   H427      1.0  0.09994  0.41190  0.39135  1.0000
  H   H428      1.0  0.47033  0.44003  0.08648  1.0000
  C   C256      1.0  0.01451  0.45320  0.27162  1.0000
  C   C257      1.0  0.32300  0.48586  0.17694  1.0000
  H   H429      1.0  0.46988  0.40829  0.02247  1.0000
  H   H430      1.0  0.01866  0.46028  0.25553  1.0000
  H   H431      1.0  0.13086  0.44769  0.45555  1.0000
  C   C258      1.0  0.47610  0.43001  0.09623  1.0000
  C   C259      1.0  0.34863  0.47644  0.04174  1.0000
  H   H432      1.0  0.06520  0.39240  0.44750  1.0000
  H   H433      1.0  0.36596  0.48186  0.20887  1.0000
  H   H434      1.0  0.08959  0.42172  0.34888  1.0000
  H   H435      1.0  0.06108  0.41396  0.36345  1.0000
  H   H436      1.0  0.06214  0.43208  0.36101  1.0000
  H   H437      1.0  0.27257  0.48239  0.12551  1.0000
  H   H438      1.0  0.07444  0.47868  0.29322  1.0000
  C   C260      1.0  0.27684  0.46112  0.13533  1.0000
  N   N14       1.0  0.22298  0.40891  0.29784  1.0000
  C   C261      1.0  0.22814  0.42299  0.30309  1.0000
  C   C262      1.0  0.21400  0.40927  0.27106  1.0000
  C   C263      1.0  0.20018  0.40454  0.31534  1.0000
  C   C264      1.0  0.24674  0.39901  0.30229  1.0000
  C   C265      1.0  0.27464  0.40444  0.29691  1.0000
  C   C266      1.0  0.23344  0.42488  0.33105  1.0000
  C   C267      1.0  0.19021  0.39054  0.31201  1.0000
  C   C268      1.0  0.23478  0.41269  0.24962  1.0000
  C   C269      1.0  0.22206  0.41464  0.22387  1.0000
  C   C270      1.0  0.29636  0.39297  0.29764  1.0000
  C   C271      1.0  0.24807  0.43749  0.33314  1.0000
  C   C272      1.0  0.17098  0.38611  0.33369  1.0000
  H   H439      1.0  0.21084  0.43007  0.29773  1.0000
  H   H440      1.0  0.24482  0.42682  0.29097  1.0000
  H   H441      1.0  0.20765  0.39935  0.26713  1.0000
  H   H442      1.0  0.19627  0.41652  0.26839  1.0000
  H   H443      1.0  0.18284  0.41204  0.31330  1.0000
  H   H444      1.0  0.20565  0.40422  0.33544  1.0000
  H   H445      1.0  0.24662  0.39460  0.32236  1.0000
  H   H446      1.0  0.24546  0.39032  0.29093  1.0000
  H   H447      1.0  0.27900  0.41112  0.31143  1.0000
  H   H448      1.0  0.27645  0.41030  0.27831  1.0000
  H   H449      1.0  0.21425  0.42593  0.34201  1.0000
  H   H450      1.0  0.24526  0.41615  0.34024  1.0000
  H   H451      1.0  0.20692  0.38274  0.31144  1.0000
  H   H452      1.0  0.17921  0.39087  0.29436  1.0000
  H   H453      1.0  0.24426  0.42200  0.25219  1.0000
  H   H454      1.0  0.25034  0.40430  0.24883  1.0000
  H   H455      1.0  0.20664  0.42316  0.22337  1.0000
  H   H456      1.0  0.23743  0.41698  0.20884  1.0000
  H   H457      1.0  0.21292  0.40539  0.21983  1.0000
  H   H458      1.0  0.29601  0.38701  0.31637  1.0000
  H   H459      1.0  0.29373  0.38627  0.28259  1.0000
  H   H460      1.0  0.31606  0.39715  0.29438  1.0000
  H   H461      1.0  0.24995  0.43903  0.35338  1.0000
  H   H462      1.0  0.26826  0.43645  0.32410  1.0000
  H   H463      1.0  0.23704  0.44648  0.32383  1.0000
  H   H464      1.0  0.15296  0.39317  0.33383  1.0000
  H   H465      1.0  0.16479  0.37594  0.33119  1.0000
  H   H466      1.0  0.18045  0.38574  0.35221  1.0000
  H   H467      1.0  0.37820  0.48473  0.17646  1.0000
  H   H468      1.0  0.40642  0.48152  0.00736  1.0000
  C   C273      1.0  0.05330  0.41937  0.45703  1.0000
  H   H469      1.0  0.12177  0.38408  0.42813  1.0000
  C   C274      1.0  0.49283  0.44925  0.15419  1.0000
  C   C275      1.0  0.32663  0.46644  0.04662  1.0000
  H   H470      1.0  0.26827  0.47558  0.21572  1.0000
  H   H471      1.0  0.29192  0.46305  0.07099  1.0000
  H   H472      1.0  0.09960  0.45471  0.46826  1.0000
  H   H473      1.0  0.03397  0.45504  0.34682  1.0000
  H   H474      1.0  0.44185  0.35277  0.04991  1.0000
  H   H475      1.0  0.30019  0.47978  0.22515  1.0000
  H   H476      1.0  0.06028  0.41606  0.47635  1.0000
  H   H477      1.0  0.48649  0.36142  0.04313  1.0000
  C   C276      1.0  0.48929  0.35908  0.02303  1.0000
  H   H478      1.0  0.17785  0.47972  0.47513  1.0000
  C   C277      1.0  0.48824  0.38289  0.00777  1.0000
  C   C278      1.0  0.46155  0.35714  0.01302  1.0000
  H   H479      1.0  0.45654  0.33808  0.03559  1.0000
  C   C279      1.0  0.38078  0.46468  0.97907  1.0000
  H   H480      1.0  0.39087  0.45473  0.98499  1.0000
  H   H481      1.0  0.42630  0.34665  0.02391  1.0000
  H   H482      1.0  0.49436  0.41760  0.00412  1.0000
  H   H483      1.0  0.46367  0.35232  0.99500  1.0000
  C   C280      1.0  0.48334  0.40839  0.00535  1.0000
  H   H484      1.0  0.17245  0.45557  0.47402  1.0000
  S   S63       1.0  0.17714  0.41848  0.47911  1.0000
  C   C281      1.0  0.01421  0.28298  0.72933  1.0000
  S   S64       1.0  0.17200  0.47179  0.60406  1.0000
  H   H485      1.0  0.26295  0.44882  0.68071  1.0000
  H   H486      1.0  0.12915  0.24511  0.59523  1.0000
  S   S65       1.0  0.37591  0.45042  0.81185  1.0000
  Fe  Fe32      1.0  0.15735  0.37817  0.54633  1.0000
  S   S66       1.0  0.11690  0.38427  0.56221  1.0000
  S   S67       1.0  0.17800  0.35760  0.55825  1.0000
  Fe  Fe33      1.0  0.15909  0.40400  0.50966  1.0000
  S   S68       1.0  0.11905  0.41183  0.52373  1.0000
  Fe  Fe34      1.0  0.13228  0.40475  0.56251  1.0000
  S   S69       1.0  0.11935  0.41709  0.59504  1.0000
  Fe  Fe35      1.0  0.10762  0.39094  0.52195  1.0000
  S   S70       1.0  0.06985  0.38877  0.50296  1.0000
  S   S71       1.0  0.17374  0.39837  0.54920  1.0000
  S   S72       1.0  0.14668  0.38333  0.50547  1.0000
  Fe  Fe36      1.0  0.37676  0.39903  0.92388  1.0000
  S   S73       1.0  0.37229  0.38335  0.95672  1.0000
  S   S74       1.0  0.34337  0.41359  0.91006  1.0000
  Fe  Fe37      1.0  0.43499  0.39183  0.91611  1.0000
  Fe  Fe38      1.0  0.39818  0.36985  0.93247  1.0000
  S   S75       1.0  0.39120  0.34782  0.92950  1.0000
  S   S76       1.0  0.39948  0.38507  0.89885  1.0000
  Fe  Fe39      1.0  0.38042  0.30109  0.81247  1.0000
  S   S77       1.0  0.38782  0.30288  0.77016  1.0000
  S   S78       1.0  0.37837  0.32231  0.82556  1.0000
  Fe  Fe40      1.0  0.38257  0.27032  0.81335  1.0000
  S   S79       1.0  0.39041  0.27071  0.77148  1.0000
  S   S80       1.0  0.38088  0.25025  0.83726  1.0000
  Fe  Fe41      1.0  0.41932  0.28605  0.77722  1.0000
  S   S81       1.0  0.46059  0.28582  0.75765  1.0000
  Fe  Fe42      1.0  0.35786  0.28740  0.76900  1.0000
  S   S82       1.0  0.32717  0.28862  0.73790  1.0000
  S   S83       1.0  0.41330  0.28484  0.81934  1.0000
  S   S84       1.0  0.34863  0.28644  0.81090  1.0000
  Fe  Fe43      1.0  0.16657  0.26643  0.65732  1.0000
  S   S85       1.0  0.15537  0.25945  0.69723  1.0000
  S   S86       1.0  0.18333  0.25241  0.62892  1.0000
  Fe  Fe44      1.0  0.14992  0.29604  0.66409  1.0000
  S   S87       1.0  0.13696  0.29065  0.70466  1.0000
  S   S88       1.0  0.14125  0.31843  0.65307  1.0000
  Fe  Fe45      1.0  0.17547  0.27766  0.70676  1.0000
  S   S89       1.0  0.20343  0.27799  0.73943  1.0000
  Fe  Fe46      1.0  0.11824  0.27316  0.69070  1.0000
  S   S90       1.0  0.07758  0.26441  0.69305  1.0000
  S   S91       1.0  0.18892  0.28374  0.66694  1.0000
  S   S92       1.0  0.12909  0.27939  0.65011  1.0000
  C   C282      1.0  0.28304  0.41128  0.84018  1.0000
  H   H487      1.0  0.45640  0.41722  0.85371  1.0000
  H   H488      1.0  0.32760  0.34160  0.82965  1.0000
  C   C283      1.0  0.04554  0.27187  0.70056  1.0000
  H   H489      1.0  0.06352  0.45258  0.61309  1.0000
  H   H490      1.0  0.05885  0.42688  0.57481  1.0000
  H   H491      1.0  0.02791  0.26471  0.66869  1.0000
  H   H492      1.0  0.06235  0.37110  0.54948  1.0000
  H   H493      1.0  0.08456  0.30738  0.74490  1.0000
  H   H494      1.0  0.38442  0.24410  0.78470  1.0000
  C   C284      1.0  0.30395  0.45812  0.70019  1.0000
  C   C285      1.0  0.06531  0.44042  0.54186  1.0000
  H   H495      1.0  0.39573  0.47214  0.97447  1.0000
  H   H496      1.0  0.02695  0.40655  0.57823  1.0000
  H   H497      1.0  0.47419  0.28457  0.81061  1.0000
  C   C286      1.0  0.29266  0.28580  0.73889  1.0000
  C   C287      1.0  0.27984  0.28550  0.71599  1.0000
  C   C288      1.0  0.25266  0.28314  0.71574  1.0000
  C   C289      1.0  0.23778  0.28114  0.73847  1.0000
  C   C290      1.0  0.25056  0.28152  0.76137  1.0000
  C   C291      1.0  0.27777  0.28380  0.76162  1.0000
  H   H498      1.0  0.29112  0.28698  0.69828  1.0000
  H   H499      1.0  0.24330  0.28278  0.69797  1.0000
  H   H500      1.0  0.23929  0.28008  0.77908  1.0000
  H   H501      1.0  0.28722  0.28406  0.77940  1.0000
  C   C292      1.0  0.02453  0.40431  0.55904  1.0000
  H   H502      1.0  0.00161  0.31073  0.63843  1.0000
  C   C293      1.0  0.38860  0.34062  0.90053  1.0000
  C   C294      1.0  0.38287  0.32708  0.90085  1.0000
  C   C295      1.0  0.38005  0.32118  0.87813  1.0000
  C   C296      1.0  0.38250  0.32886  0.85488  1.0000
  C   C297      1.0  0.38808  0.34240  0.85461  1.0000
  C   C298      1.0  0.39182  0.34813  0.87724  1.0000
  H   H503      1.0  0.38043  0.32115  0.91880  1.0000
  H   H504      1.0  0.37537  0.31081  0.87865  1.0000
  H   H505      1.0  0.39021  0.34839  0.83670  1.0000
  H   H506      1.0  0.39737  0.35833  0.87671  1.0000
  C   C299      1.0  0.04313  0.39579  0.52036  1.0000
  H   H507      1.0  0.00381  0.40446  0.63035  1.0000
  C   C300      1.0  0.04646  0.39946  0.54469  1.0000
  H   H508      1.0  0.30212  0.38642  0.83131  1.0000
  H   H509      1.0  0.06580  0.39828  0.55271  1.0000
  C   C301      1.0  0.16679  0.34668  0.58417  1.0000
  C   C302      1.0  0.17539  0.33295  0.58570  1.0000
  C   C303      1.0  0.16746  0.32406  0.60640  1.0000
  C   C304      1.0  0.15139  0.32893  0.62612  1.0000
  C   C305      1.0  0.14308  0.34268  0.62473  1.0000
  C   C306      1.0  0.15046  0.35148  0.60377  1.0000
  H   H510      1.0  0.18809  0.32916  0.57065  1.0000
  H   H511      1.0  0.17386  0.31351  0.60710  1.0000
  H   H512      1.0  0.13082  0.34658  0.63995  1.0000
  H   H513      1.0  0.14399  0.36204  0.60301  1.0000
  H   H514      1.0  0.29939  0.34469  0.80997  1.0000
  C   C307      1.0  0.36633  0.44047  0.83931  1.0000
  C   C308      1.0  0.35035  0.44585  0.85859  1.0000
  C   C309      1.0  0.34307  0.43755  0.88026  1.0000
  C   C310      1.0  0.35274  0.42404  0.88318  1.0000
  C   C311      1.0  0.36923  0.41880  0.86417  1.0000
  C   C312      1.0  0.37529  0.42687  0.84196  1.0000
  H   H515      1.0  0.34328  0.45634  0.85666  1.0000
  H   H516      1.0  0.33026  0.44166  0.89492  1.0000
  H   H517      1.0  0.37688  0.40846  0.86640  1.0000
  H   H518      1.0  0.38700  0.42259  0.82681  1.0000
  C   C313      1.0  0.06040  0.43783  0.57043  1.0000
  H   H519      1.0  0.02644  0.35888  0.58395  1.0000
  C   C314      1.0  0.15632  0.45697  0.60081  1.0000
  C   C315      1.0  0.16348  0.44943  0.58026  1.0000
  C   C316      1.0  0.15212  0.43723  0.57808  1.0000
  C   C317      1.0  0.13372  0.43246  0.59659  1.0000
  C   C318      1.0  0.12647  0.44005  0.61697  1.0000
  C   C319      1.0  0.13756  0.45231  0.61901  1.0000
  H   H520      1.0  0.17815  0.45292  0.56621  1.0000
  H   H521      1.0  0.15786  0.43141  0.56230  1.0000
  H   H522      1.0  0.11261  0.43627  0.63145  1.0000
  H   H523      1.0  0.13208  0.45800  0.63499  1.0000
  H   H524      1.0  0.29614  0.36390  0.94066  1.0000
  H   H525      1.0  0.31597  0.37761  0.94585  1.0000
  C   C320      1.0  0.44023  0.44383  0.85682  1.0000
  C   C321      1.0  0.45163  0.44520  0.81147  1.0000
  C   C322      1.0  0.02218  0.31259  0.67388  1.0000
  H   H526      1.0  0.45711  0.33310  0.86886  1.0000
  H   H527      1.0  0.45024  0.42948  0.89015  1.0000
  C   C323      1.0  0.45307  0.46070  0.80964  1.0000
  H   H528      1.0  0.29837  0.35837  0.87353  1.0000
  C   C324      1.0  0.31856  0.25093  0.75923  1.0000
  C   C325      1.0  0.44398  0.46720  0.78402  1.0000
  H   H529      1.0  0.38163  0.45974  0.94007  1.0000
  H   H530      1.0  0.06354  0.43523  0.62358  1.0000
  H   H531      1.0  0.44871  0.45285  0.86305  1.0000
  H   H532      1.0  0.42075  0.44757  0.84880  1.0000
  H   H533      1.0  0.43134  0.44311  0.80632  1.0000
  H   H534      1.0  0.04921  0.43660  0.53163  1.0000
  H   H535      1.0  0.46125  0.24869  0.83233  1.0000
  H   H536      1.0  0.23119  0.44991  0.71080  1.0000
  H   H537      1.0  0.45694  0.46342  0.76842  1.0000
  H   H538      1.0  0.46060  0.30066  0.83901  1.0000
  H   H539      1.0  0.21706  0.48412  0.76085  1.0000
  H   H540      1.0  0.42316  0.46506  0.78118  1.0000
  H   H541      1.0  0.20234  0.44827  0.69283  1.0000
  H   H542      1.0  0.44022  0.46532  0.82437  1.0000
  H   H543      1.0  0.46382  0.31656  0.76094  1.0000
  C   C326      1.0  0.17056  0.47402  0.49268  1.0000
  C   C327      1.0  0.30491  0.36074  0.83356  1.0000
  C   C328      1.0  0.22410  0.24091  0.68850  1.0000
  H   H544      1.0  0.02012  0.42342  0.65157  1.0000
  H   H545      1.0  0.41889  0.47609  0.92325  1.0000
  H   H546      1.0  0.20363  0.24144  0.68172  1.0000
  H   H547      1.0  0.22588  0.24961  0.69965  1.0000
  H   H548      1.0  0.17234  0.45296  0.50801  1.0000
  C   C329      1.0  0.23875  0.45427  0.62072  1.0000
  H   H549      1.0  0.01042  0.28785  0.74658  1.0000
  N   N15       1.0  0.47140  0.32111  0.83860  1.0000
  C   C330      1.0  0.03272  0.35701  0.54362  1.0000
  H   H550      1.0  0.07169  0.35393  0.56017  1.0000
  S   S93       1.0  0.43573  0.37566  0.94821  1.0000
  H   H551      1.0  0.48984  0.44997  0.84452  1.0000
  C   C331      1.0  0.00526  0.45439  0.61271  1.0000
  S   S94       1.0  0.32833  0.48308  0.82363  1.0000
  H   H552      1.0  0.05646  0.27981  0.73448  1.0000
  H   H553      1.0  0.06241  0.33510  0.59173  1.0000
  S   S95       1.0  0.41258  0.40720  0.93831  1.0000
  H   H554      1.0  0.06664  0.45131  0.53624  1.0000
  H   H555      1.0  0.26068  0.45314  0.62056  1.0000
  C   C332      1.0  0.01709  0.42973  0.61125  1.0000
  C   C333      1.0  0.29417  0.24246  0.84184  1.0000
  H   H556      1.0  0.29679  0.44939  0.71236  1.0000
  C   C334      1.0  0.45092  0.30658  0.87680  1.0000
  H   H557      1.0  0.03067  0.44315  0.66075  1.0000
  H   H558      1.0  0.02810  0.29199  0.63986  1.0000
  N   N16       1.0  0.22910  0.32412  0.66271  1.0000
  C   C335      1.0  0.20803  0.32539  0.68359  1.0000
  C   C336      1.0  0.22612  0.33598  0.64286  1.0000
  C   C337      1.0  0.22475  0.31157  0.65022  1.0000
  C   C338      1.0  0.25668  0.32248  0.67273  1.0000
  C   C339      1.0  0.26451  0.33348  0.68892  1.0000
  C   C340      1.0  0.20846  0.31385  0.70524  1.0000
  C   C341      1.0  0.24132  0.30943  0.62537  1.0000
  C   C342      1.0  0.21616  0.34982  0.65190  1.0000
  C   C343      1.0  0.21811  0.36101  0.63039  1.0000
  C   C344      1.0  0.29104  0.32937  0.70115  1.0000
  C   C345      1.0  0.18636  0.31643  0.72515  1.0000
  C   C346      1.0  0.23533  0.29630  0.61505  1.0000
  H   H559      1.0  0.18803  0.32623  0.67541  1.0000
  H   H560      1.0  0.20907  0.33478  0.69278  1.0000
  H   H561      1.0  0.24510  0.33717  0.63168  1.0000
  H   H562      1.0  0.21130  0.33414  0.62893  1.0000
  H   H563      1.0  0.20344  0.31143  0.64584  1.0000
  H   H564      1.0  0.22951  0.30247  0.66330  1.0000
  H   H565      1.0  0.25990  0.31258  0.68401  1.0000
  H   H566      1.0  0.27179  0.32218  0.65690  1.0000
  H   H567      1.0  0.24968  0.33532  0.70441  1.0000
  H   H568      1.0  0.26693  0.34296  0.67675  1.0000
  H   H569      1.0  0.20526  0.30411  0.69809  1.0000
  H   H570      1.0  0.22759  0.31288  0.71487  1.0000
  H   H571      1.0  0.26287  0.30886  0.62858  1.0000
  H   H572      1.0  0.23675  0.31766  0.61038  1.0000
  H   H573      1.0  0.19491  0.34967  0.65821  1.0000
  H   H574      1.0  0.22747  0.35246  0.66779  1.0000
  H   H575      1.0  0.23911  0.36203  0.62393  1.0000
  H   H576      1.0  0.20656  0.35889  0.61411  1.0000
  H   H577      1.0  0.20990  0.37071  0.63702  1.0000
  H   H578      1.0  0.28963  0.32006  0.71415  1.0000
  H   H579      1.0  0.30698  0.32761  0.68650  1.0000
  H   H580      1.0  0.29660  0.33748  0.71230  1.0000
  H   H581      1.0  0.18695  0.30799  0.74030  1.0000
  H   H582      1.0  0.18895  0.32586  0.73384  1.0000
  H   H583      1.0  0.16667  0.31710  0.71652  1.0000
  H   H584      1.0  0.21398  0.29638  0.61100  1.0000
  H   H585      1.0  0.24712  0.29504  0.59718  1.0000
  H   H586      1.0  0.24063  0.28757  0.62884  1.0000
  H   H587      1.0  0.01430  0.37279  0.56334  1.0000
  H   H588      1.0  0.99918  0.45372  0.63306  1.0000
  C   C347      1.0  0.41212  0.48480  0.91006  1.0000
  H   H589      1.0  0.46049  0.25942  0.80319  1.0000
  C   C348      1.0  0.31401  0.36269  0.86040  1.0000
  N   N17       1.0  0.31852  0.37685  0.86619  1.0000
  H   H590      1.0  0.42896  0.45039  0.90676  1.0000
  C   C349      1.0  0.31257  0.37778  0.89414  1.0000
  C   C350      1.0  0.34703  0.37980  0.86063  1.0000
  C   C351      1.0  0.35714  0.37966  0.83274  1.0000
  C   C352      1.0  0.31126  0.23695  0.77143  1.0000
  C   C353      1.0  0.32813  0.36727  0.91239  1.0000
  H   H591      1.0  0.14857  0.47466  0.49312  1.0000
  C   C354      1.0  0.33488  0.24966  0.73456  1.0000
  C   C355      1.0  0.38537  0.38415  0.82910  1.0000
  H   H592      1.0  0.43846  0.33591  0.84147  1.0000
  C   C356      1.0  0.31653  0.36736  0.93943  1.0000
  C   C357      1.0  0.03502  0.44609  0.57940  1.0000
  H   H593      1.0  0.43960  0.31488  0.88589  1.0000
  H   H594      1.0  0.33225  0.35591  0.86398  1.0000
  H   H595      1.0  0.07818  0.44067  0.57956  1.0000
  C   C358      1.0  0.07091  0.44765  0.66468  1.0000
  H   H596      1.0  0.31719  0.38772  0.89982  1.0000
  H   H597      1.0  0.35103  0.38953  0.86759  1.0000
  H   H598      1.0  0.36014  0.37226  0.87150  1.0000
  H   H599      1.0  0.34445  0.38645  0.81990  1.0000
  H   H600      1.0  0.35780  0.36928  0.82704  1.0000
  H   H601      1.0  0.26111  0.24809  0.74974  1.0000
  C   C359      1.0  0.11269  0.25214  0.60161  1.0000
  H   H602      1.0  0.34911  0.36971  0.91262  1.0000
  H   H603      1.0  0.32789  0.35687  0.90701  1.0000
  H   H604      1.0  0.29445  0.34009  0.84340  1.0000
  H   H605      1.0  0.01889  0.44385  0.56722  1.0000
  H   H606      1.0  0.28391  0.36469  0.83164  1.0000
  H   H607      1.0  0.08600  0.45404  0.65500  1.0000
  C   C360      1.0  0.22629  0.45569  0.64773  1.0000
  H   H608      1.0  0.38583  0.39484  0.83276  1.0000
  H   H609      1.0  0.39896  0.37786  0.84196  1.0000
  H   H610      1.0  0.39266  0.38312  0.80931  1.0000
  H   H611      1.0  0.34010  0.25978  0.72638  1.0000
  C   C361      1.0  0.36689  0.46322  0.95461  1.0000
  C   C362      1.0  0.01816  0.39756  0.50994  1.0000
  H   H612      1.0  0.44493  0.47827  0.78323  1.0000
  H   H613      1.0  0.41592  0.29532  0.87491  1.0000
  H   H614      1.0  0.02509  0.36234  0.52582  1.0000
  H   H615      1.0  0.20816  0.47974  0.55931  1.0000
  H   H616      1.0  0.03831  0.45978  0.64895  1.0000
  H   H617      1.0  0.27063  0.25606  0.78876  1.0000
  C   C363      1.0  0.19487  0.45910  0.72541  1.0000
  H   H618      1.0  0.22716  0.47505  0.69737  1.0000
  H   H619      1.0  0.06015  0.24189  0.67048  1.0000
  H   H620      1.0  0.05789  0.48371  0.61450  1.0000
  H   H621      1.0  0.00257  0.24272  0.66916  1.0000
  H   H622      1.0  0.31516  0.46410  0.71206  1.0000
  C   C364      1.0  0.02422  0.26993  0.68553  1.0000
  C   C365      1.0  0.47000  0.25005  0.81277  1.0000
  H   H623      1.0  0.03848  0.45688  0.57448  1.0000
  H   H624      1.0  0.47045  0.30471  0.88558  1.0000
  H   H625      1.0  0.43458  0.33270  0.80160  1.0000
  H   H626      1.0  0.20263  0.47679  0.51627  1.0000
  N   N18       1.0  0.04997  0.31412  0.66255  1.0000
  C   C366      1.0  0.04976  0.32530  0.64139  1.0000
  H   H627      1.0  0.43153  0.42249  0.83220  1.0000
  C   C367      1.0  0.06705  0.31805  0.68286  1.0000
  C   C368      1.0  0.06192  0.30101  0.65384  1.0000
  C   C369      1.0  0.04768  0.29529  0.63254  1.0000
  C   C370      1.0  0.07715  0.32867  0.62913  1.0000
  C   C371      1.0  0.06761  0.30872  0.70792  1.0000
  H   H628      1.0  0.18977  0.44991  0.73741  1.0000
  H   H629      1.0  0.32909  0.36044  0.95230  1.0000
  C   C372      1.0  0.06351  0.28298  0.62326  1.0000
  C   C373      1.0  0.07403  0.33901  0.60630  1.0000
  H   H630      1.0  0.43302  0.31263  0.84155  1.0000
  H   H631      1.0  0.04039  0.33473  0.64848  1.0000
  H   H632      1.0  0.03735  0.32314  0.62585  1.0000
  H   H633      1.0  0.01783  0.31935  0.68929  1.0000
  C   C374      1.0  0.21295  0.45527  0.70302  1.0000
  H   H634      1.0  0.06070  0.32843  0.68768  1.0000
  H   H635      1.0  0.08810  0.31828  0.67595  1.0000
  H   H636      1.0  0.08322  0.30172  0.64813  1.0000
  H   H637      1.0  0.06210  0.29305  0.66978  1.0000
  H   H638      1.0  0.04495  0.30273  0.61593  1.0000
  H   H639      1.0  0.39856  0.44780  0.89173  1.0000
  C   C375      1.0  0.43583  0.29397  0.88314  1.0000
  H   H640      1.0  0.08838  0.31966  0.62248  1.0000
  H   H641      1.0  0.07732  0.29871  0.70468  1.0000
  H   H642      1.0  0.04742  0.30736  0.71629  1.0000
  H   H643      1.0  0.30063  0.25760  0.75487  1.0000
  C   C376      1.0  0.29976  0.38702  0.85201  1.0000
  H   H644      1.0  0.45374  0.35811  0.86999  1.0000
  Fe  Fe47      1.0  0.41002  0.39058  0.96953  1.0000
  C   C377      1.0  0.04040  0.27853  0.72238  1.0000
  H   H645      1.0  0.08284  0.28582  0.61440  1.0000
  H   H646      1.0  0.06712  0.27514  0.63917  1.0000
  H   H647      1.0  0.05225  0.27868  0.60891  1.0000
  C   C378      1.0  0.28060  0.46691  0.68894  1.0000
  H   H648      1.0  0.06413  0.34857  0.61206  1.0000
  H   H649      1.0  0.09394  0.34110  0.59779  1.0000
  C   C379      1.0  0.47338  0.32184  0.81004  1.0000
  H   H650      1.0  0.43267  0.32639  0.75796  1.0000
  H   H651      1.0  0.03320  0.34604  0.54240  1.0000
  H   H652      1.0  0.23281  0.46328  0.60784  1.0000
  C   C380      1.0  0.41682  0.44274  0.90017  1.0000
  N   N19       1.0  0.02678  0.44367  0.60709  1.0000
  H   H653      1.0  0.29786  0.40394  0.87620  1.0000
  C   C381      1.0  0.08341  0.31452  0.72760  1.0000
  H   H654      1.0  0.46758  0.41286  0.93113  1.0000
  H   H655      1.0  0.12041  0.25850  0.61518  1.0000
  C   C382      1.0  0.31113  0.24827  0.86058  1.0000
  H   H656      1.0  0.20475  0.45860  0.64536  1.0000
  H   H657      1.0  0.01967  0.24111  0.69864  1.0000
  H   H658      1.0  0.06651  0.45108  0.68379  1.0000
  H   H659      1.0  0.42000  0.42678  0.87596  1.0000
  H   H660      1.0  0.27888  0.38469  0.85708  1.0000
  H   H661      1.0  0.99869  0.33653  0.55869  1.0000
  C   C383      1.0  0.46369  0.40084  0.81715  1.0000
  H   H662      1.0  0.26225  0.40897  0.84529  1.0000
  C   C384      1.0  0.30236  0.40200  0.85621  1.0000
  H   H663      1.0  0.25398  0.24355  0.80724  1.0000
  H   H664      1.0  0.10393  0.31614  0.72020  1.0000
  C   C385      1.0  0.44687  0.32373  0.79611  1.0000
  H   H665      1.0  0.47442  0.39584  0.80152  1.0000
  C   C386      1.0  0.22339  0.24615  0.76958  1.0000
  S   S96       1.0  0.47084  0.39543  0.89080  1.0000
  H   H666      1.0  0.08666  0.43195  0.48317  1.0000
  H   H667      1.0  0.29097  0.37695  0.89853  1.0000
  H   H668      1.0  0.21997  0.25638  0.77598  1.0000
  H   H669      1.0  0.35358  0.24335  0.73807  1.0000
  Fe  Fe48      1.0  0.36737  0.47276  0.81243  1.0000
  C   C387      1.0  0.06143  0.36053  0.54526  1.0000
  H   H670      1.0  0.02010  0.42727  0.49735  1.0000
  H   H671      1.0  0.28723  0.41024  0.81974  1.0000
  C   C388      1.0  0.46889  0.41575  0.81472  1.0000
  H   H672      1.0  0.41074  0.43594  0.91677  1.0000
  H   H673      1.0  0.33073  0.25589  0.77196  1.0000
  C   C389      1.0  0.43270  0.43464  0.88088  1.0000
  H   H674      1.0  0.08316  0.23815  0.59952  1.0000
  C   C390      1.0  0.22928  0.44203  0.60960  1.0000
  C   C391      1.0  0.17993  0.45923  0.49124  1.0000
  C   C392      1.0  0.49099  0.28656  0.77278  1.0000
  C   C393      1.0  0.99871  0.31592  0.65590  1.0000
  C   C394      1.0  0.47389  0.34681  0.84055  1.0000
  C   C395      1.0  0.01533  0.36164  0.56637  1.0000
  N   N20       1.0  0.23845  0.46544  0.66309  1.0000
  C   C396      1.0  0.45904  0.33400  0.84786  1.0000
  H   H675      1.0  0.20731  0.44230  0.61048  1.0000
  H   H676      1.0  0.21395  0.24612  0.75114  1.0000
  H   H677      1.0  0.22723  0.44544  0.65790  1.0000
  H   H678      1.0  0.47372  0.46331  0.81169  1.0000
  H   H679      1.0  0.46525  0.44165  0.79610  1.0000
  H   H680      1.0  0.49050  0.41649  0.81616  1.0000
  H   H681      1.0  0.10339  0.24298  0.65156  1.0000
  H   H682      1.0  0.08911  0.33310  0.64274  1.0000
  H   H683      1.0  0.02050  0.30223  0.68316  1.0000
  H   H684      1.0  0.46912  0.36826  0.84448  1.0000
  C   C397      1.0  0.45288  0.42321  0.83541  1.0000
  H   H685      1.0  0.32335  0.24522  0.72059  1.0000
  C   C398      1.0  0.05077  0.44483  0.62257  1.0000
  H   H686      1.0  0.49107  0.36533  0.97202  1.0000
  C   C399      1.0  0.08989  0.24435  0.61386  1.0000
  C   C400      1.0  0.26780  0.24509  0.79047  1.0000
  C   C401      1.0  0.25306  0.24220  0.76676  1.0000
  H   H687      1.0  0.44216  0.39956  0.81617  1.0000
  H   H688      1.0  0.08436  0.43509  0.53625  1.0000
  H   H689      1.0  0.10567  0.25873  0.58492  1.0000
  H   H690      1.0  0.20501  0.46558  0.73716  1.0000
  H   H691      1.0  0.28536  0.42188  0.84367  1.0000
  H   H692      1.0  0.46249  0.33464  0.76179  1.0000
  S   S97       1.0  0.14136  0.47931  0.67353  1.0000
  H   H693      1.0  0.26816  0.47044  0.70501  1.0000
  H   H694      1.0  0.31690  0.36603  0.81838  1.0000
  H   H695      1.0  0.07361  0.32422  0.73284  1.0000
  H   H696      1.0  0.07902  0.43701  0.66686  1.0000
  H   H697      1.0  0.46293  0.41994  0.79558  1.0000
  H   H698      1.0  0.43317  0.29198  0.90398  1.0000
  H   H699      1.0  0.07238  0.35919  0.52696  1.0000
  H   H700      1.0  0.23723  0.43261  0.62019  1.0000
  H   H701      1.0  0.49304  0.34602  0.85010  1.0000
  H   H702      1.0  0.32257  0.40505  0.85070  1.0000
  N   N21       1.0  0.45827  0.43772  0.83671  1.0000
  H   H703      1.0  0.44696  0.28512  0.87564  1.0000
  H   H704      1.0  0.17620  0.46457  0.71873  1.0000
  H   H705      1.0  0.43530  0.31475  0.80018  1.0000
  C   C402      1.0  0.48814  0.40976  0.92729  1.0000
  C   C403      1.0  0.04558  0.44905  0.64983  1.0000
  H   H706      1.0  0.27862  0.45758  0.65470  1.0000
  C   C404      1.0  0.21962  0.46788  0.68531  1.0000
  H   H707      1.0  0.31021  0.25395  0.80941  1.0000
  H   H708      1.0  0.43869  0.36081  0.83951  1.0000
  C   C405      1.0  0.45363  0.31004  0.84771  1.0000
  C   C406      1.0  0.30669  0.34587  0.82896  1.0000
  H   H709      1.0  0.07348  0.25180  0.61850  1.0000
  C   C407      1.0  0.49523  0.40154  0.90790  1.0000
  H   H710      1.0  0.31764  0.45447  0.68497  1.0000
  H   H711      1.0  0.01562  0.39498  0.49093  1.0000
  H   H712      1.0  0.49098  0.43347  0.88165  1.0000
  C   C408      1.0  0.45781  0.35922  0.84918  1.0000
  H   H713      1.0  0.22417  0.48043  0.63384  1.0000
  C   C409      1.0  0.45191  0.32545  0.76746  1.0000
  C   C410      1.0  0.99801  0.27446  0.69238  1.0000
  S   S98       1.0  0.39161  0.48401  0.83626  1.0000
  H   H714      1.0  0.01173  0.47909  0.65070  1.0000
  H   H715      1.0  0.35177  0.45570  0.95789  1.0000
  H   H716      1.0  0.00272  0.42826  0.59666  1.0000
  C   C411      1.0  0.49209  0.28590  0.79909  1.0000
  C   C412      1.0  0.18095  0.47943  0.51649  1.0000
  H   H717      1.0  0.23627  0.44196  0.58949  1.0000
  H   H718      1.0  0.20054  0.47287  0.67837  1.0000
  C   C413      1.0  0.26507  0.45911  0.67137  1.0000
  H   H719      1.0  0.03373  0.42206  0.60837  1.0000
  C   C414      1.0  0.24133  0.47841  0.64647  1.0000
  H   H720      1.0  0.47088  0.39585  0.83536  1.0000
  H   H721      1.0  0.00083  0.47319  0.74588  1.0000
  N   N22       1.0  0.29370  0.23696  0.79514  1.0000
  H   H722      1.0  0.17274  0.47341  0.53341  1.0000
  H   H723      1.0  0.04515  0.23967  0.64210  1.0000
  S   S99       1.0  0.06156  0.48462  0.67033  1.0000
  C   C415      1.0  0.99947  0.40591  0.54873  1.0000
  H   H724      1.0  0.01308  0.46451  0.60879  1.0000
  H   H725      1.0  0.48389  0.31247  0.80399  1.0000
  H   H726      1.0  0.47749  0.34856  0.81983  1.0000
  H   H727      1.0  0.00447  0.33856  0.59044  1.0000
  H   H728      1.0  0.27474  0.24839  0.84143  1.0000
  H   H729      1.0  0.31563  0.25873  0.85387  1.0000
  H   H730      1.0  0.25933  0.47748  0.63371  1.0000
  H   H731      1.0  0.48573  0.33000  0.80204  1.0000
  H   H732      1.0  0.33007  0.24201  0.86307  1.0000
  C   C416      1.0  0.00439  0.42554  0.63757  1.0000
  H   H733      1.0  0.28910  0.47561  0.67783  1.0000
  H   H734      1.0  0.32844  0.23852  0.81669  1.0000
  H   H735      1.0  0.35717  0.47301  0.94709  1.0000
  H   H736      1.0  0.46543  0.24151  0.80227  1.0000
  H   H737      1.0  0.20193  0.45790  0.49017  1.0000
  H   H738      1.0  0.40373  0.48097  0.89342  1.0000
  H   H739      1.0  0.23819  0.24174  0.67186  1.0000
  H   H740      1.0  0.04562  0.47980  0.58498  1.0000
  C   C417      1.0  0.30785  0.24311  0.81507  1.0000
  H   H741      1.0  0.12363  0.44595  0.48914  1.0000
  C   C418      1.0  0.48705  0.43940  0.84110  1.0000
  H   H742      1.0  0.30041  0.24837  0.87927  1.0000
  Fe  Fe49      1.0  0.15340  0.48509  0.63308  1.0000
  H   H743      1.0  0.21372  0.23896  0.78361  1.0000
  S   S100      1.0  0.37381  0.48646  0.77697  1.0000
  H   H744      1.0  0.99904  0.43945  0.47904  1.0000
  C   C419      1.0  0.01213  0.43008  0.47829  1.0000
  Fe  Fe50      1.0  0.16579  0.53939  0.41649  1.0000
  S   S101      1.0  0.17623  0.55852  0.43125  1.0000
  S   S102      1.0  0.19156  0.52770  0.38936  1.0000
  Fe  Fe51      1.0  0.11250  0.53941  0.44542  1.0000
  H   H745      1.0  0.06256  0.56831  0.37635  1.0000
  H   H746      1.0  0.30896  0.51752  0.17233  1.0000
  Fe  Fe52      1.0  0.13387  0.56606  0.42383  1.0000
  S   S103      1.0  0.11499  0.58430  0.40043  1.0000
  H   H747      1.0  0.04934  0.49178  0.39213  1.0000
  S   S104      1.0  0.12499  0.54743  0.40626  1.0000
  C   C420      1.0  0.35918  0.72836  0.17890  1.0000
  S   S105      1.0  0.37681  0.53415  0.00682  1.0000
  Fe  Fe53      1.0  0.36548  0.57103  0.02582  1.0000
  S   S106      1.0  0.38066  0.55401  0.05302  1.0000
  S   S107      1.0  0.36043  0.59311  0.03412  1.0000
  Fe  Fe54      1.0  0.40616  0.54721  0.02024  1.0000
  C   C421      1.0  0.02502  0.53407  0.32058  1.0000
  Fe  Fe55      1.0  0.35007  0.54224  0.03744  1.0000
  S   S108      1.0  0.32635  0.52731  0.06156  1.0000
  S   S109      1.0  0.33260  0.55976  0.01235  1.0000
  Fe  Fe56      1.0  0.39633  0.65240  0.19222  1.0000
  S   S110      1.0  0.39338  0.65514  0.15009  1.0000
  S   S111      1.0  0.43279  0.65229  0.21568  1.0000
  Fe  Fe57      1.0  0.33512  0.65055  0.20120  1.0000
  S   S112      1.0  0.32845  0.65316  0.15959  1.0000
  S   S113      1.0  0.30377  0.64857  0.23351  1.0000
  Fe  Fe58      1.0  0.36472  0.63874  0.15522  1.0000
  S   S114      1.0  0.36848  0.61806  0.13955  1.0000
  Fe  Fe59      1.0  0.35763  0.66926  0.15858  1.0000
  S   S115      1.0  0.35007  0.69029  0.13876  1.0000
  S   S116      1.0  0.36971  0.63537  0.19735  1.0000
  S   S117      1.0  0.36230  0.66727  0.20035  1.0000
  Fe  Fe60      1.0  0.09534  0.66205  0.29895  1.0000
  S   S118      1.0  0.11285  0.67155  0.33059  1.0000
  S   S119      1.0  0.05099  0.65965  0.30815  1.0000
  Fe  Fe61      1.0  0.15172  0.65689  0.27333  1.0000
  S   S120      1.0  0.17164  0.66557  0.30401  1.0000
  S   S121      1.0  0.17710  0.65055  0.23904  1.0000
  Fe  Fe62      1.0  0.14356  0.65407  0.33059  1.0000
  S   S122      1.0  0.15814  0.64162  0.36596  1.0000
  Fe  Fe63      1.0  0.13889  0.68203  0.30070  1.0000
  S   S123      1.0  0.14780  0.70379  0.28951  1.0000
  S   S124      1.0  0.12559  0.64421  0.30009  1.0000
  S   S125      1.0  0.11951  0.67368  0.26886  1.0000
  H   H748      1.0  0.42998  0.50888  0.15192  1.0000
  H   H749      1.0  0.05712  0.71176  0.31224  1.0000
  C   C422      1.0  0.14983  0.71765  0.30739  1.0000
  H   H750      1.0  0.26425  0.73028  0.16825  1.0000
  C   C423      1.0  0.02995  0.57844  0.39720  1.0000
  H   H751      1.0  0.24582  0.72100  0.27311  1.0000
  C   C424      1.0  0.14752  0.72849  0.34661  1.0000
  C   C425      1.0  0.14622  0.71687  0.33374  1.0000
  H   H752      1.0  0.48560  0.62513  0.20325  1.0000
  H   H753      1.0  0.14468  0.72786  0.36698  1.0000
  H   H754      1.0  0.14242  0.70736  0.34417  1.0000
  C   C426      1.0  0.02101  0.66150  0.29164  1.0000
  H   H755      1.0  0.43427  0.68035  0.20177  1.0000
  C   C427      1.0  0.02025  0.66527  0.26566  1.0000
  H   H756      1.0  0.06684  0.69949  0.26143  1.0000
  H   H757      1.0  0.03847  0.66713  0.25489  1.0000
  C   C428      1.0  0.35276  0.70491  0.15464  1.0000
  C   C429      1.0  0.35627  0.70408  0.18068  1.0000
  C   C430      1.0  0.35966  0.71569  0.19267  1.0000
  H   H758      1.0  0.02203  0.52263  0.46353  1.0000
  H   H759      1.0  0.47051  0.64796  0.25316  1.0000
  C   C431      1.0  0.35158  0.71764  0.14092  1.0000
  H   H760      1.0  0.35659  0.69452  0.19166  1.0000
  H   H761      1.0  0.36289  0.71485  0.21276  1.0000
  H   H762      1.0  0.34863  0.71843  0.12078  1.0000
  C   C432      1.0  0.46789  0.65243  0.21293  1.0000
  H   H763      1.0  0.45766  0.68081  0.16414  1.0000
  H   H764      1.0  0.20961  0.62816  0.30228  1.0000
  C   C433      1.0  0.26853  0.64981  0.23413  1.0000
  C   C434      1.0  0.25409  0.65044  0.21218  1.0000
  C   C435      1.0  0.22610  0.65085  0.21391  1.0000
  C   C436      1.0  0.21227  0.65077  0.23751  1.0000
  C   C437      1.0  0.22675  0.65049  0.25935  1.0000
  C   C438      1.0  0.25467  0.64993  0.25767  1.0000
  H   H765      1.0  0.26446  0.65031  0.19398  1.0000
  H   H766      1.0  0.21505  0.65118  0.19689  1.0000
  H   H767      1.0  0.21645  0.65048  0.27760  1.0000
  H   H768      1.0  0.26563  0.64948  0.27477  1.0000
  C   C439      1.0  0.47268  0.54819  0.01592  1.0000
  C   C440      1.0  0.46790  0.55921  0.99815  1.0000
  C   C441      1.0  0.35467  0.72935  0.15300  1.0000
  C   C442      1.0  0.36191  0.59984  0.06372  1.0000
  C   C443      1.0  0.35883  0.61387  0.06469  1.0000
  C   C444      1.0  0.36061  0.61967  0.08768  1.0000
  C   C445      1.0  0.36555  0.61147  0.10999  1.0000
  C   C446      1.0  0.36847  0.59745  0.10904  1.0000
  C   C447      1.0  0.36662  0.59165  0.08609  1.0000
  H   H769      1.0  0.35519  0.62029  0.04748  1.0000
  H   H770      1.0  0.35836  0.63046  0.08807  1.0000
  H   H771      1.0  0.37223  0.59102  0.12621  1.0000
  H   H772      1.0  0.36883  0.58086  0.08569  1.0000
  C   C448      1.0  0.34720  0.51568  0.07953  1.0000
  C   C449      1.0  0.33783  0.50352  0.09026  1.0000
  H   H773      1.0  0.28055  0.52564  0.12261  1.0000
  C   C450      1.0  0.25790  0.72347  0.28864  1.0000
  C   C451      1.0  0.38983  0.50934  0.09789  1.0000
  C   C452      1.0  0.37330  0.51847  0.08319  1.0000
  C   C453      1.0  0.04774  0.57702  0.37341  1.0000
  H   H774      1.0  0.48834  0.58346  0.04298  1.0000
  H   H775      1.0  0.40994  0.51164  0.10077  1.0000
  H   H776      1.0  0.38082  0.52769  0.07480  1.0000
  C   C454      1.0  0.05065  0.53159  0.43720  1.0000
  H   H777      1.0  0.45998  0.72578  0.16066  1.0000
  C   C455      1.0  0.05457  0.53867  0.41358  1.0000
  H   H778      1.0  0.41740  0.68001  0.10787  1.0000
  H   H779      1.0  0.07413  0.54107  0.40693  1.0000
  C   C456      1.0  0.12779  0.60009  0.39121  1.0000
  C   C457      1.0  0.14866  0.60478  0.40344  1.0000
  C   C458      1.0  0.15750  0.61761  0.39581  1.0000
  C   C459      1.0  0.14581  0.62578  0.37571  1.0000
  C   C460      1.0  0.12501  0.62103  0.36347  1.0000
  C   C461      1.0  0.11596  0.60831  0.37130  1.0000
  H   H780      1.0  0.15777  0.59861  0.41895  1.0000
  H   H781      1.0  0.17357  0.62121  0.40543  1.0000
  H   H782      1.0  0.11561  0.62725  0.34821  1.0000
  H   H783      1.0  0.09966  0.60482  0.36187  1.0000
  C   C462      1.0  0.17513  0.51413  0.38051  1.0000
  H   H784      1.0  0.40832  0.59905  0.99325  1.0000
  H   H785      1.0  0.15763  0.61325  0.31434  1.0000
  H   H786      1.0  0.03546  0.57545  0.35731  1.0000
  C   C463      1.0  0.13572  0.50173  0.38246  1.0000
  C   C464      1.0  0.14995  0.51173  0.39102  1.0000
  H   H787      1.0  0.41759  0.58836  0.03602  1.0000
  H   H788      1.0  0.20829  0.57508  0.36892  1.0000
  H   H789      1.0  0.11607  0.50011  0.39047  1.0000
  H   H790      1.0  0.14113  0.51776  0.40542  1.0000
  H   H791      1.0  0.13913  0.53961  0.31404  1.0000
  H   H792      1.0  0.05634  0.58950  0.41498  1.0000
  C   C465      1.0  0.28078  0.49490  0.19761  1.0000
  C   C466      1.0  0.43790  0.60332  0.06927  1.0000
  C   C467      1.0  0.44247  0.60498  0.09746  1.0000
  C   C468      1.0  0.15103  0.61574  0.26138  1.0000
  C   C469      1.0  0.15496  0.73001  0.29418  1.0000
  H   H793      1.0  0.45754  0.55505  0.10697  1.0000
  H   H794      1.0  0.05850  0.58624  0.36855  1.0000
  C   C470      1.0  0.48253  0.65495  0.19002  1.0000
  H   H795      1.0  0.49007  0.60960  0.06928  1.0000
  C   C471      1.0  0.46911  0.70161  0.19201  1.0000
  C   C472      1.0  0.44539  0.55377  0.09062  1.0000
  H   H796      1.0  0.19189  0.58119  0.32556  1.0000
  N   N23       1.0  0.19990  0.60808  0.31680  1.0000
  C   C473      1.0  0.17492  0.61784  0.27674  1.0000
  H   H797      1.0  0.45035  0.68579  0.10697  1.0000
  H   H798      1.0  0.40728  0.73031  0.13366  1.0000
  H   H799      1.0  0.23112  0.60885  0.28757  1.0000
  H   H800      1.0  0.25780  0.67976  0.14259  1.0000
  H   H801      1.0  0.16112  0.58819  0.33865  1.0000
  H   H802      1.0  0.02458  0.53162  0.30065  1.0000
  H   H803      1.0  0.29586  0.53668  0.14154  1.0000
  S   S126      1.0  0.11829  0.55845  0.46271  1.0000
  H   H804      1.0  0.48303  0.49196  0.14813  1.0000
  H   H805      1.0  0.03606  0.54863  0.38072  1.0000
  N   N24       1.0  0.27960  0.61561  0.15291  1.0000
  C   C474      1.0  0.27517  0.62847  0.13592  1.0000
  C   C475      1.0  0.25325  0.61170  0.16457  1.0000
  C   C476      1.0  0.29846  0.61799  0.17297  1.0000
  C   C477      1.0  0.29168  0.60434  0.13822  1.0000
  C   C478      1.0  0.27558  0.60094  0.11579  1.0000
  C   C479      1.0  0.29865  0.63224  0.11743  1.0000
  C   C480      1.0  0.30211  0.60660  0.19476  1.0000
  C   C481      1.0  0.23917  0.62169  0.18233  1.0000
  C   C482      1.0  0.21314  0.61659  0.19377  1.0000
  C   C483      1.0  0.29216  0.59165  0.09903  1.0000
  C   C484      1.0  0.29293  0.64600  0.10299  1.0000
  C   C485      1.0  0.32268  0.60982  0.21299  1.0000
  H   H806      1.0  0.27055  0.63712  0.14749  1.0000
  H   H807      1.0  0.25739  0.62822  0.12445  1.0000
  H   H808      1.0  0.23912  0.61073  0.14951  1.0000
  H   H809      1.0  0.25534  0.60156  0.17510  1.0000
  H   H810      1.0  0.29246  0.62749  0.18168  1.0000
  H   H811      1.0  0.31847  0.61958  0.16429  1.0000
  H   H812      1.0  0.31221  0.60640  0.13124  1.0000
  H   H813      1.0  0.29417  0.59484  0.15070  1.0000
  H   H814      1.0  0.26880  0.61002  0.10360  1.0000
  H   H815      1.0  0.25781  0.59571  0.12306  1.0000
  H   H816      1.0  0.31707  0.63251  0.12771  1.0000
  H   H817      1.0  0.30246  0.62486  0.10316  1.0000
  H   H818      1.0  0.30910  0.59691  0.18744  1.0000
  H   H819      1.0  0.28331  0.60522  0.20591  1.0000
  H   H820      1.0  0.25167  0.62319  0.19826  1.0000
  H   H821      1.0  0.23444  0.63159  0.17172  1.0000
  H   H822      1.0  0.21685  0.60684  0.20527  1.0000
  H   H823      1.0  0.20352  0.62397  0.20630  1.0000
  H   H824      1.0  0.19931  0.61537  0.17866  1.0000
  H   H825      1.0  0.30914  0.59687  0.08982  1.0000
  H   H826      1.0  0.29980  0.58236  0.11027  1.0000
  H   H827      1.0  0.27985  0.58877  0.08393  1.0000
  H   H828      1.0  0.28943  0.65394  0.11624  1.0000
  H   H829      1.0  0.31024  0.64846  0.09024  1.0000
  H   H830      1.0  0.27530  0.64595  0.09132  1.0000
  H   H831      1.0  0.31715  0.61962  0.22068  1.0000
  H   H832      1.0  0.32397  0.60189  0.22905  1.0000
  H   H833      1.0  0.34251  0.61012  0.20318  1.0000
  H   H834      1.0  0.37972  0.49668  0.05013  1.0000
  H   H835      1.0  0.01714  0.49969  0.39998  1.0000
  C   C486      1.0  0.48047  0.59003  0.05784  1.0000
  H   H836      1.0  0.05069  0.69175  0.28927  1.0000
  C   C487      1.0  0.01992  0.68862  0.34667  1.0000
  H   H837      1.0  0.46611  0.69553  0.14570  1.0000
  C   C488      1.0  0.04663  0.58001  0.42024  1.0000
  H   H838      1.0  0.29006  0.50350  0.20432  1.0000
  H   H839      1.0  0.44888  0.56100  0.98967  1.0000
  H   H840      1.0  0.47144  0.56374  0.06312  1.0000
  H   H841      1.0  0.26099  0.58305  0.28344  1.0000
  C   C489      1.0  0.00335  0.53280  0.43066  1.0000
  H   H842      1.0  0.18154  0.69372  0.24216  1.0000
  Fe  Fe64      1.0  0.15975  0.54928  0.46874  1.0000
  H   H843      1.0  0.15177  0.60524  0.25621  1.0000
  C   C490      1.0  0.18647  0.50609  0.36203  1.0000
  H   H844      1.0  0.45522  0.50687  0.17544  1.0000
  H   H845      1.0  0.04294  0.48829  0.29413  1.0000
  H   H846      1.0  0.47471  0.68232  0.21599  1.0000
  C   C491      1.0  0.14657  0.49398  0.36343  1.0000
  N   N25       1.0  0.44349  0.69908  0.18048  1.0000
  C   C492      1.0  0.42869  0.71240  0.17303  1.0000
  C   C493      1.0  0.42614  0.69098  0.19902  1.0000
  H   H847      1.0  0.44988  0.57926  0.09631  1.0000
  C   C494      1.0  0.44981  0.69120  0.15785  1.0000
  C   C495      1.0  0.42622  0.68973  0.14090  1.0000
  H   H848      1.0  0.22735  0.73265  0.31279  1.0000
  C   C496      1.0  0.41910  0.49984  0.03567  1.0000
  C   C497      1.0  0.26666  0.48950  0.24377  1.0000
  C   C498      1.0  0.43476  0.68107  0.11940  1.0000
  H   H849      1.0  0.40631  0.69044  0.19123  1.0000
  H   H850      1.0  0.42475  0.71828  0.18968  1.0000
  H   H851      1.0  0.40872  0.71084  0.16647  1.0000
  H   H852      1.0  0.25099  0.63951  0.35101  1.0000
  H   H853      1.0  0.44443  0.61235  0.05771  1.0000
  N   N26       1.0  0.45045  0.59057  0.05947  1.0000
  H   H854      1.0  0.42867  0.59887  0.10975  1.0000
  H   H855      1.0  0.38309  0.68769  0.23327  1.0000
  H   H856      1.0  0.21668  0.52020  0.46682  1.0000
  H   H857      1.0  0.41829  0.69963  0.13215  1.0000
  H   H858      1.0  0.40987  0.68490  0.15200  1.0000
  H   H859      1.0  0.47122  0.51235  0.07950  1.0000
  C   C499      1.0  0.17217  0.49599  0.35345  1.0000
  C   C500      1.0  0.02511  0.52825  0.44536  1.0000
  C   C501      1.0  0.22173  0.50934  0.46488  1.0000
  H   H860      1.0  0.41253  0.50816  0.02152  1.0000
  H   H861      1.0  0.17396  0.62864  0.27994  1.0000
  S   S127      1.0  0.39368  0.56518  0.99393  1.0000
  C   C502      1.0  0.36823  0.48956  0.19259  1.0000
  H   H862      1.0  0.03823  0.73361  0.24711  1.0000
  H   H863      1.0  0.44241  0.67087  0.12705  1.0000
  H   H864      1.0  0.03503  0.61358  0.33955  1.0000
  C   C503      1.0  0.40263  0.68740  0.24202  1.0000
  C   C504      1.0  0.44275  0.72178  0.15260  1.0000
  N   N27       1.0  0.27399  0.69650  0.22069  1.0000
  C   C505      1.0  0.26716  0.71095  0.21091  1.0000
  C   C506      1.0  0.25108  0.69089  0.23683  1.0000
  C   C507      1.0  0.29746  0.69634  0.23730  1.0000
  C   C508      1.0  0.28183  0.68776  0.19955  1.0000
  C   C509      1.0  0.26152  0.68778  0.17869  1.0000
  C   C510      1.0  0.28940  0.71825  0.19534  1.0000
  C   C511      1.0  0.30705  0.68239  0.25026  1.0000
  C   C512      1.0  0.22257  0.69675  0.23059  1.0000
  C   C513      1.0  0.20166  0.68907  0.24640  1.0000
  C   C514      1.0  0.27261  0.67948  0.15744  1.0000
  H   H865      1.0  0.08495  0.69530  0.29003  1.0000
  C   C515      1.0  0.32687  0.68375  0.27051  1.0000
  H   H866      1.0  0.26125  0.71698  0.22707  1.0000
  H   H867      1.0  0.24961  0.71185  0.19898  1.0000
  H   H868      1.0  0.25153  0.67976  0.23654  1.0000
  H   H869      1.0  0.25302  0.69252  0.25711  1.0000
  H   H870      1.0  0.29294  0.70336  0.25224  1.0000
  H   H871      1.0  0.31508  0.70001  0.22621  1.0000
  H   H872      1.0  0.30124  0.69039  0.19041  1.0000
  H   H873      1.0  0.28539  0.67708  0.20725  1.0000
  H   H874      1.0  0.25635  0.69806  0.16991  1.0000
  H   H875      1.0  0.24332  0.68320  0.18666  1.0000
  H   H876      1.0  0.30520  0.72034  0.20791  1.0000
  C   C516      1.0  0.03300  0.54285  0.39861  1.0000
  H   H877      1.0  0.31725  0.67620  0.23601  1.0000
  H   H878      1.0  0.29052  0.67681  0.25939  1.0000
  H   H879      1.0  0.21977  0.70738  0.23506  1.0000
  H   H880      1.0  0.21847  0.69638  0.21041  1.0000
  H   H881      1.0  0.20256  0.67848  0.24187  1.0000
  C   C517      1.0  0.29274  0.51645  0.15964  1.0000
  C   C518      1.0  0.48148  0.64992  0.23539  1.0000
  H   H882      1.0  0.06297  0.57186  0.42130  1.0000
  H   H883      1.0  0.41682  0.62347  0.09806  1.0000
  H   H884      1.0  0.27700  0.66886  0.16483  1.0000
  H   H885      1.0  0.43886  0.61037  0.01810  1.0000
  C   C519      1.0  0.29647  0.52624  0.13608  1.0000
  H   H886      1.0  0.41114  0.67682  0.24445  1.0000
  H   H887      1.0  0.34382  0.68936  0.26237  1.0000
  H   H888      1.0  0.31713  0.68905  0.28627  1.0000
  H   H889      1.0  0.33465  0.67359  0.27824  1.0000
  C   C520      1.0  0.00734  0.54027  0.40741  1.0000
  H   H890      1.0  0.08220  0.59449  0.44343  1.0000
  H   H891      1.0  0.15104  0.52465  0.33307  1.0000
  H   H892      1.0  0.29102  0.68357  0.14866  1.0000
  C   C521      1.0  0.18283  0.58664  0.34139  1.0000
  H   H893      1.0  0.15121  0.62262  0.24371  1.0000
  H   H894      1.0  0.14787  0.54058  0.34634  1.0000
  C   C522      1.0  0.18686  0.57765  0.36600  1.0000
  H   H895      1.0  0.04664  0.50718  0.40760  1.0000
  H   H896      1.0  0.31601  0.52394  0.12641  1.0000
  H   H897      1.0  0.27188  0.50195  0.14369  1.0000
  H   H898      1.0  0.29830  0.71223  0.18024  1.0000
  S   S128      1.0  0.44746  0.53774  0.02655  1.0000
  H   H899      1.0  0.21374  0.59413  0.28933  1.0000
  N   N28       1.0  0.06919  0.51969  0.33192  1.0000
  C   C523      1.0  0.06075  0.51095  0.31252  1.0000
  C   C524      1.0  0.05416  0.53337  0.32895  1.0000
  C   C525      1.0  0.09835  0.52169  0.32682  1.0000
  C   C526      1.0  0.06594  0.51318  0.35855  1.0000
  C   C527      1.0  0.03758  0.50975  0.36761  1.0000
  C   C528      1.0  0.06471  0.48901  0.29198  1.0000
  C   C529      1.0  0.11039  0.53190  0.34258  1.0000
  S   S129      1.0  0.07709  0.52767  0.45727  1.0000
  H   H900      1.0  0.48704  0.51691  0.14400  1.0000
  C   C530      1.0  0.03777  0.50158  0.39340  1.0000
  C   C531      1.0  0.20605  0.62224  0.32072  1.0000
  C   C532      1.0  0.13882  0.53431  0.33336  1.0000
  H   H901      1.0  0.06385  0.51608  0.29318  1.0000
  H   H902      1.0  0.03925  0.50951  0.31461  1.0000
  H   H903      1.0  0.05433  0.53828  0.34682  1.0000
  H   H904      1.0  0.06436  0.54014  0.31435  1.0000
  H   H905      1.0  0.10219  0.52493  0.30641  1.0000
  H   H906      1.0  0.11057  0.51208  0.33073  1.0000
  H   H907      1.0  0.07939  0.50388  0.36119  1.0000
  H   H908      1.0  0.07238  0.51981  0.37238  1.0000
  H   H909      1.0  0.02849  0.50376  0.35430  1.0000
  H   H910      1.0  0.02499  0.51912  0.37001  1.0000
  C   C533      1.0  0.23297  0.63857  0.34035  1.0000
  H   H911      1.0  0.03639  0.62478  0.36395  1.0000
  H   H912      1.0  0.11093  0.52801  0.36279  1.0000
  H   H913      1.0  0.09901  0.54181  0.34136  1.0000
  C   C534      1.0  0.01160  0.54820  0.32178  1.0000
  H   H914      1.0  0.48544  0.60977  0.03610  1.0000
  H   H915      1.0  0.02210  0.55558  0.30883  1.0000
  H   H916      1.0  0.27659  0.59817  0.28886  1.0000
  S   S130      1.0  0.15260  0.52974  0.45412  1.0000
  C   C535      1.0  0.22187  0.60128  0.30128  1.0000
  H   H917      1.0  0.16933  0.59897  0.29848  1.0000
  H   H918      1.0  0.42468  0.50428  0.05285  1.0000
  H   H919      1.0  0.30664  0.50011  0.13701  1.0000
  H   H920      1.0  0.01464  0.67806  0.34652  1.0000
  H   H921      1.0  0.21548  0.64247  0.35154  1.0000
  H   H922      1.0  0.17803  0.58272  0.38239  1.0000
  H   H923      1.0  0.23454  0.64483  0.32201  1.0000
  C   C536      1.0  0.24552  0.73577  0.30170  1.0000
  C   C537      1.0  0.26767  0.58908  0.29814  1.0000
  H   H924      1.0  0.25224  0.59860  0.33070  1.0000
  C   C538      1.0  0.05721  0.71287  0.29130  1.0000
  C   C539      1.0  0.43947  0.58912  0.03401  1.0000
  H   H925      1.0  0.17701  0.56817  0.36523  1.0000
  H   H926      1.0  0.39961  0.69118  0.26098  1.0000
  H   H927      1.0  0.44766  0.57964  0.02654  1.0000
  H   H928      1.0  0.13225  0.61801  0.27230  1.0000
  H   H929      1.0  0.00657  0.59549  0.46362  1.0000
  H   H930      1.0  0.41604  0.60393  0.06719  1.0000
  C   C540      1.0  0.48612  0.68887  0.20220  1.0000
  H   H931      1.0  0.27248  0.71265  0.32348  1.0000
  H   H932      1.0  0.46303  0.60154  0.10263  1.0000
  H   H933      1.0  0.31770  0.50128  0.08727  1.0000
  C   C541      1.0  0.48785  0.56800  0.99129  1.0000
  H   H934      1.0  0.19314  0.61549  0.26511  1.0000
  H   H935      1.0  0.42408  0.55414  0.09677  1.0000
  C   C542      1.0  0.29149  0.50186  0.15244  1.0000
  H   H936      1.0  0.22963  0.61813  0.35499  1.0000
  H   H937      1.0  0.37721  0.49224  0.00704  1.0000
  C   C543      1.0  0.17456  0.60911  0.30250  1.0000
  C   C544      1.0  0.19454  0.60048  0.34220  1.0000
  C   C545      1.0  0.42133  0.69615  0.22557  1.0000
  C   C546      1.0  0.07654  0.72336  0.27996  1.0000
  C   C547      1.0  0.07481  0.49665  0.31272  1.0000
  C   C548      1.0  0.06698  0.59586  0.45886  1.0000
  H   H938      1.0  0.18023  0.60655  0.35375  1.0000
  H   H939      1.0  0.03027  0.63159  0.33202  1.0000
  C   C549      1.0  0.24445  0.59304  0.31599  1.0000
  H   H940      1.0  0.28318  0.58292  0.30905  1.0000
  H   H941      1.0  0.07619  0.72310  0.25918  1.0000
  C   C550      1.0  0.49617  0.61682  0.19358  1.0000
  H   H942      1.0  0.18062  0.49005  0.33872  1.0000
  H   H943      1.0  0.23712  0.58363  0.32559  1.0000
  H   H944      1.0  0.24019  0.70828  0.31497  1.0000
  H   H945      1.0  0.21255  0.59896  0.35350  1.0000
  C   C551      1.0  0.44180  0.57890  0.07730  1.0000
  C   C552      1.0  0.23063  0.62384  0.33611  1.0000
  H   H946      1.0  0.18858  0.62750  0.32996  1.0000
  C   C553      1.0  0.45016  0.56468  0.06914  1.0000
  C   C554      1.0  0.49350  0.60362  0.05277  1.0000
  H   H947      1.0  0.43864  0.62024  0.12405  1.0000
  H   H948      1.0  0.27383  0.51966  0.16957  1.0000
  H   H949      1.0  0.43815  0.56258  0.05323  1.0000
  N   N29       1.0  0.03191  0.58036  0.44558  1.0000
  H   H950      1.0  0.21066  0.50629  0.44902  1.0000
  H   H951      1.0  0.09703  0.71952  0.28503  1.0000
  H   H952      1.0  0.34498  0.50382  0.16888  1.0000
  C   C555      1.0  0.38060  0.49718  0.10847  1.0000
  C   C556      1.0  0.43711  0.61958  0.10343  1.0000
  H   H953      1.0  0.24894  0.62052  0.32548  1.0000
  H   H954      1.0  0.24591  0.49338  0.24009  1.0000
  H   H955      1.0  0.48206  0.70708  0.17777  1.0000
  H   H956      1.0  0.44975  0.71653  0.13585  1.0000
  C   C557      1.0  0.44511  0.60019  0.01257  1.0000
  H   H957      1.0  0.24328  0.50790  0.46010  1.0000
  H   H958      1.0  0.41978  0.57960  0.08017  1.0000
  H   H959      1.0  0.03676  0.71576  0.28516  1.0000
  H   H960      1.0  0.27827  0.72537  0.28128  1.0000
  C   C558      1.0  0.06543  0.69905  0.28240  1.0000
  H   H961      1.0  0.45177  0.62600  0.09310  1.0000
  H   H962      1.0  0.01288  0.52699  0.33237  1.0000
  H   H963      1.0  0.25987  0.49866  0.19396  1.0000
  H   H964      1.0  0.09649  0.49702  0.30907  1.0000
  C   C559      1.0  0.39681  0.49052  0.04244  1.0000
  C   C560      1.0  0.34127  0.49624  0.18504  1.0000
  C   C561      1.0  0.47984  0.51225  0.12777  1.0000
  H   H965      1.0  0.38106  0.49722  0.19806  1.0000
  C   C562      1.0  0.02633  0.62313  0.34648  1.0000
  C   C563      1.0  0.35463  0.49420  0.10455  1.0000
  H   H966      1.0  0.02710  0.68990  0.36566  1.0000
  C   C564      1.0  0.43008  0.59826  0.98903  1.0000
  H   H967      1.0  0.20454  0.68933  0.26694  1.0000
  H   H968      1.0  0.33277  0.50130  0.20150  1.0000
  C   C565      1.0  0.26017  0.71095  0.30746  1.0000
  H   H969      1.0  0.46656  0.59961  0.00706  1.0000
  H   H970      1.0  0.15789  0.73069  0.27383  1.0000
  H   H971      1.0  0.20600  0.50790  0.35390  1.0000
  H   H972      1.0  0.46335  0.51931  0.12025  1.0000
  H   H973      1.0  0.47230  0.65680  0.17250  1.0000
  H   H974      1.0  0.48181  0.49550  0.09006  1.0000
  H   H975      1.0  0.48890  0.58514  0.07572  1.0000
  H   H976      1.0  0.03866  0.55873  0.45189  1.0000
  H   H977      1.0  0.26964  0.70232  0.29793  1.0000
  H   H978      1.0  0.46533  0.70839  0.20741  1.0000
  H   H979      1.0  0.47658  0.50942  0.03388  1.0000
  H   H980      1.0  0.41221  0.70658  0.22427  1.0000
  C   C566      1.0  0.02210  0.56665  0.45344  1.0000
  H   H981      1.0  0.44013  0.69585  0.23560  1.0000
  H   H982      1.0  0.05337  0.60473  0.45322  1.0000
  H   H983      1.0  0.43590  0.58829  0.98218  1.0000
  H   H984      1.0  0.49311  0.53817  0.12436  1.0000
  H   H985      1.0  0.03637  0.69043  0.33255  1.0000
  H   H986      1.0  0.49348  0.68299  0.18635  1.0000
  H   H987      1.0  0.45099  0.54374  0.08389  1.0000
  H   H988      1.0  0.48212  0.61294  0.18108  1.0000
  N   N30       1.0  0.29423  0.49059  0.17343  1.0000
  Fe  Fe65      1.0  0.36210  0.55247  0.98263  1.0000
  H   H989      1.0  0.07107  0.49073  0.33109  1.0000
  H   H990      1.0  0.43840  0.49262  0.16804  1.0000
  C   C567      1.0  0.49203  0.50120  0.03866  1.0000
  H   H991      1.0  0.27788  0.49767  0.24981  1.0000
  H   H992      1.0  0.05969  0.73108  0.32649  1.0000
  C   C568      1.0  0.00990  0.59147  0.44480  1.0000
  H   H993      1.0  0.01600  0.60020  0.43184  1.0000
  H   H994      1.0  0.06678  0.57433  0.46723  1.0000
  C   C569      1.0  0.46767  0.49917  0.13930  1.0000
  H   H995      1.0  0.00211  0.70873  0.34184  1.0000
  H   H996      1.0  0.48253  0.49159  0.04315  1.0000
  H   H997      1.0  0.01820  0.56954  0.40034  1.0000
  C   C570      1.0  0.44658  0.50215  0.15994  1.0000
  C   C571      1.0  0.48905  0.50564  0.08507  1.0000
  C   C572      1.0  0.27880  0.73177  0.18256  1.0000
  H   H998      1.0  0.06969  0.49401  0.27298  1.0000
  H   H999      1.0  0.11504  0.73429  0.24878  1.0000
  H   H1000     1.0  0.43680  0.49418  0.02788  1.0000
  C   C573      1.0  0.05168  0.58299  0.46471  1.0000
  H   H1001     1.0  0.00728  0.56401  0.44036  1.0000
  C   C574      1.0  0.42414  0.73377  0.14333  1.0000
  H   H1002     1.0  0.01631  0.58753  0.39327  1.0000
  H   H1003     1.0  0.09448  0.73165  0.32046  1.0000
  H   H1004     1.0  0.45793  0.49421  0.12481  1.0000
  H   H1005     1.0  0.00162  0.69981  0.30073  1.0000
  H   H1006     1.0  0.01141  0.55125  0.34132  1.0000
  H   H1007     1.0  0.99742  0.65627  0.32547  1.0000
  H   H1008     1.0  0.09327  0.60786  0.47680  1.0000
  S   S131      1.0  0.18212  0.54625  0.50498  1.0000
  Fe  Fe66      1.0  0.13440  0.51425  0.63645  1.0000
  S   S132      1.0  0.12141  0.51076  0.67771  1.0000
  S   S133      1.0  0.12214  0.53286  0.61101  1.0000
  H   H1009     1.0  0.08202  0.54379  0.64678  1.0000
  H   H1010     1.0  0.04738  0.50753  0.62774  1.0000
  Fe  Fe67      1.0  0.16075  0.49805  0.68215  1.0000
  H   H1011     1.0  0.02744  0.53250  0.65723  1.0000
  S   S134      1.0  0.11498  0.49667  0.62494  1.0000
  C   C575      1.0  0.02267  0.52978  0.57919  1.0000
  Fe  Fe68      1.0  0.35332  0.49587  0.84452  1.0000
  S   S135      1.0  0.35827  0.51117  0.81127  1.0000
  S   S136      1.0  0.34612  0.49902  0.88618  1.0000
  Fe  Fe69      1.0  0.33537  0.49759  0.78926  1.0000
  C   C576      1.0  0.47350  0.50998  0.87362  1.0000
  Fe  Fe70      1.0  0.39586  0.49851  0.80197  1.0000
  S   S137      1.0  0.43523  0.50851  0.79328  1.0000
  H   H1012     1.0  0.00736  0.54313  0.48415  1.0000
  C   C577      1.0  0.48649  0.49738  0.80748  1.0000
  C   C578      1.0  0.29805  0.54019  0.78423  1.0000
  S   S138      1.0  0.35418  0.55246  0.94067  1.0000
  H   H1013     1.0  0.12700  0.55101  0.52201  1.0000
  S   S139      1.0  0.17432  0.50307  0.64142  1.0000
  H   H1014     1.0  0.28575  0.53637  0.77012  1.0000
  C   C579      1.0  0.47046  0.50835  0.79657  1.0000
  C   C580      1.0  0.08182  0.59890  0.48182  1.0000
  C   C581      1.0  0.13428  0.51110  0.52658  1.0000
  H   H1015     1.0  0.02929  0.50314  0.57461  1.0000
  C   C582      1.0  0.34824  0.51406  0.90072  1.0000
  C   C583      1.0  0.34746  0.52666  0.88687  1.0000
  C   C584      1.0  0.34899  0.53836  0.89939  1.0000
  C   C585      1.0  0.35141  0.53756  0.92578  1.0000
  C   C586      1.0  0.35206  0.52495  0.93956  1.0000
  C   C587      1.0  0.35036  0.51329  0.92709  1.0000
  H   H1016     1.0  0.34552  0.52740  0.86661  1.0000
  H   H1017     1.0  0.34844  0.54808  0.88860  1.0000
  H   H1018     1.0  0.24081  0.54556  0.84006  1.0000
  H   H1019     1.0  0.35065  0.50360  0.93797  1.0000
  H   H1020     1.0  0.30337  0.50738  0.84220  1.0000
  C   C588      1.0  0.04713  0.53040  0.56058  1.0000
  H   H1021     1.0  0.48437  0.56778  0.89639  1.0000
  C   C589      1.0  0.22115  0.49818  0.72784  1.0000
  C   C590      1.0  0.10406  0.51253  0.52729  1.0000
  H   H1022     1.0  0.13610  0.48949  0.53523  1.0000
  C   C591      1.0  0.27180  0.50207  0.74785  1.0000
  C   C592      1.0  0.18527  0.49788  0.54371  1.0000
  H   H1023     1.0  0.24341  0.54180  0.77802  1.0000
  S   S140      1.0  0.18896  0.49535  0.71642  1.0000
  H   H1024     1.0  0.14116  0.51883  0.51195  1.0000
  C   C593      1.0  0.06198  0.54351  0.65615  1.0000
  H   H1025     1.0  0.33353  0.52964  0.76874  1.0000
  C   C594      1.0  0.16482  0.54195  0.53390  1.0000
  C   C595      1.0  0.17866  0.53508  0.55408  1.0000
  C   C596      1.0  0.16551  0.53169  0.57747  1.0000
  C   C597      1.0  0.13865  0.53571  0.58117  1.0000
  C   C598      1.0  0.12489  0.54273  0.56108  1.0000
  C   C599      1.0  0.13776  0.54559  0.53735  1.0000
  H   H1026     1.0  0.19967  0.53241  0.55161  1.0000
  H   H1027     1.0  0.17638  0.52644  0.59292  1.0000
  H   H1028     1.0  0.10428  0.54609  0.56392  1.0000
  H   H1029     1.0  0.06537  0.51298  0.60001  1.0000
  H   H1030     1.0  0.02656  0.56330  0.49450  1.0000
  H   H1031     1.0  0.35370  0.52420  0.95986  1.0000
  Fe  Fe71      1.0  0.10348  0.49245  0.66595  1.0000
  H   H1032     1.0  0.23554  0.50513  0.62588  1.0000
  H   H1033     1.0  0.24961  0.51247  0.65134  1.0000
  S   S141      1.0  0.30315  0.50555  0.76010  1.0000
  H   H1034     1.0  0.02919  0.54630  0.53448  1.0000
  H   H1035     1.0  0.29156  0.55081  0.78662  1.0000
  C   C600      1.0  0.27742  0.50019  0.87268  1.0000
  H   H1036     1.0  0.23980  0.49087  0.58229  1.0000
  C   C601      1.0  0.32648  0.53996  0.77314  1.0000
  H   H1037     1.0  0.06166  0.53698  0.56691  1.0000
  C   C602      1.0  0.22155  0.49668  0.57546  1.0000
  H   H1038     1.0  0.01193  0.49722  0.74029  1.0000
  H   H1039     1.0  0.27130  0.50360  0.83285  1.0000
  H   H1040     1.0  0.00801  0.52371  0.57132  1.0000
  H   H1041     1.0  0.45236  0.53449  0.89622  1.0000
  H   H1042     1.0  0.05676  0.53659  0.52105  1.0000
  H   H1043     1.0  0.00630  0.49828  0.77389  1.0000
  C   C603      1.0  0.04338  0.53485  0.61767  1.0000
  H   H1044     1.0  0.23190  0.51306  0.69806  1.0000
  H   H1045     1.0  0.09583  0.50538  0.54235  1.0000
  C   C604      1.0  0.04483  0.51149  0.60768  1.0000
  C   C605      1.0  0.26303  0.50923  0.72520  1.0000
  H   H1046     1.0  0.25371  0.52400  0.86007  1.0000
  H   H1047     1.0  0.20633  0.49653  0.59121  1.0000
  H   H1048     1.0  0.14069  0.51345  0.54523  1.0000
  H   H1049     1.0  0.17061  0.49587  0.55973  1.0000
  H   H1050     1.0  0.27010  0.50117  0.63300  1.0000
  C   C606      1.0  0.23813  0.50729  0.71526  1.0000
  H   H1051     1.0  0.20170  0.53441  0.76335  1.0000
  H   H1052     1.0  0.42513  0.54531  0.93026  1.0000
  H   H1053     1.0  0.48064  0.50359  0.89057  1.0000
  C   C607      1.0  0.03377  0.50000  0.59460  1.0000
  H   H1054     1.0  0.44069  0.53178  0.95087  1.0000
  H   H1055     1.0  0.25931  0.51764  0.79735  1.0000
  C   C608      1.0  0.28183  0.50829  0.84718  1.0000
  H   H1056     1.0  0.22787  0.52130  0.76249  1.0000
  H   H1057     1.0  0.29902  0.55361  0.83477  1.0000
  H   H1058     1.0  0.01536  0.49671  0.60470  1.0000
  H   H1059     1.0  0.03929  0.50790  0.69627  1.0000
  C   C609      1.0  0.48265  0.52010  0.78792  1.0000
  H   H1060     1.0  0.28123  0.54842  0.86381  1.0000
  C   C610      1.0  0.02332  0.50361  0.68768  1.0000
  H   H1061     1.0  0.24844  0.56803  0.85655  1.0000
  H   H1062     1.0  0.25619  0.55228  0.81162  1.0000
  H   H1063     1.0  0.47315  0.50308  0.85836  1.0000
  H   H1064     1.0  0.20244  0.52048  0.78748  1.0000
  H   H1065     1.0  0.47079  0.52866  0.77947  1.0000
  H   H1066     1.0  0.30217  0.52082  0.80475  1.0000
  C   C611      1.0  0.43543  0.49327  0.90188  1.0000
  H   H1067     1.0  0.31215  0.53365  0.82184  1.0000
  H   H1068     1.0  0.26675  0.57341  0.82770  1.0000
  H   H1069     1.0  0.05821  0.52276  0.65171  1.0000
  H   H1070     1.0  0.17380  0.50198  0.47978  1.0000
  C   C612      1.0  0.24982  0.50324  0.64128  1.0000
  H   H1071     1.0  0.18192  0.51380  0.50029  1.0000
  H   H1072     1.0  0.09645  0.51075  0.50870  1.0000
  N   N31       1.0  0.44598  0.51632  0.87891  1.0000
  C   C613      1.0  0.42723  0.50521  0.88236  1.0000
  C   C614      1.0  0.43858  0.52557  0.85579  1.0000
  H   H1073     1.0  0.40524  0.53496  0.95180  1.0000
  C   C615      1.0  0.44660  0.52410  0.90195  1.0000
  C   C616      1.0  0.42086  0.52525  0.91889  1.0000
  H   H1074     1.0  0.44334  0.49681  0.91900  1.0000
  N   N32       1.0  0.17477  0.49422  0.51921  1.0000
  C   C617      1.0  0.40987  0.53207  0.85538  1.0000
  C   C618      1.0  0.40458  0.54015  0.83003  1.0000
  C   C619      1.0  0.42330  0.53491  0.93913  1.0000
  H   H1075     1.0  0.28191  0.57283  0.85783  1.0000
  H   H1076     1.0  0.05101  0.55347  0.65240  1.0000
  H   H1077     1.0  0.42515  0.50094  0.86398  1.0000
  H   H1078     1.0  0.40684  0.50909  0.88774  1.0000
  H   H1079     1.0  0.45168  0.53405  0.85294  1.0000
  H   H1080     1.0  0.44188  0.52003  0.83862  1.0000
  H   H1081     1.0  0.05709  0.52028  0.55904  1.0000
  N   N33       1.0  0.02822  0.52467  0.60619  1.0000
  H   H1082     1.0  0.32718  0.54663  0.75524  1.0000
  H   H1083     1.0  0.02522  0.52942  0.52644  1.0000
  H   H1084     1.0  0.41670  0.51535  0.92884  1.0000
  H   H1085     1.0  0.40345  0.52885  0.90777  1.0000
  H   H1086     1.0  0.27556  0.51645  0.71528  1.0000
  H   H1087     1.0  0.28781  0.52721  0.86009  1.0000
  C   C620      1.0  0.04685  0.53247  0.64668  1.0000
  H   H1088     1.0  0.21770  0.54147  0.80252  1.0000
  H   H1089     1.0  0.39518  0.52438  0.85792  1.0000
  H   H1090     1.0  0.40655  0.53914  0.87020  1.0000
  H   H1091     1.0  0.41846  0.54825  0.82633  1.0000
  H   H1092     1.0  0.40687  0.53350  0.81437  1.0000
  H   H1093     1.0  0.38396  0.54481  0.83033  1.0000
  C   C621      1.0  0.03898  0.53602  0.53407  1.0000
  H   H1094     1.0  0.18772  0.50886  0.54258  1.0000
  H   H1095     1.0  0.34003  0.54352  0.78651  1.0000
  H   H1096     1.0  0.06772  0.60100  0.49783  1.0000
  C   C622      1.0  0.14494  0.49676  0.52060  1.0000
  H   H1097     1.0  0.46227  0.51958  0.91484  1.0000
  H   H1098     1.0  0.06373  0.53512  0.60885  1.0000
  H   H1099     1.0  0.22105  0.49029  0.48676  1.0000
  H   H1100     1.0  0.06440  0.54148  0.67685  1.0000
  N   N34       1.0  0.26975  0.53165  0.82357  1.0000
  C   C623      1.0  0.26021  0.54575  0.82923  1.0000
  C   C624      1.0  0.24945  0.52547  0.80891  1.0000
  C   C625      1.0  0.27274  0.52333  0.84864  1.0000
  C   C626      1.0  0.29632  0.53122  0.80952  1.0000
  H   H1101     1.0  0.07263  0.49048  0.58478  1.0000
  C   C627      1.0  0.27909  0.55326  0.84429  1.0000
  H   H1102     1.0  0.23526  0.52000  0.82204  1.0000
  C   C628      1.0  0.23162  0.53511  0.79114  1.0000
  C   C629      1.0  0.21490  0.52731  0.77523  1.0000
  H   H1103     1.0  0.03420  0.54520  0.61335  1.0000
  C   C630      1.0  0.26828  0.56776  0.84667  1.0000
  H   H1104     1.0  0.09738  0.52292  0.53136  1.0000
  C   C631      1.0  0.02900  0.49273  0.67317  1.0000
  C   C632      1.0  0.24203  0.49148  0.65987  1.0000
  C   C633      1.0  0.18519  0.50301  0.49685  1.0000
  H   H1105     1.0  0.25590  0.49990  0.87761  1.0000
  C   C634      1.0  0.21152  0.49038  0.55295  1.0000
  H   H1106     1.0  0.22625  0.50723  0.56990  1.0000
  H   H1107     1.0  0.39626  0.49086  0.91990  1.0000
  H   H1108     1.0  0.13633  0.49512  0.50235  1.0000
  H   H1109     1.0  0.22742  0.49041  0.53800  1.0000
  C   C635      1.0  0.22986  0.49108  0.75057  1.0000
  H   H1110     1.0  0.43473  0.60615  0.97371  1.0000
  H   H1111     1.0  0.00524  0.51775  0.63965  1.0000
  H   H1112     1.0  0.01303  0.54016  0.57840  1.0000
  C   C636      1.0  0.25490  0.49289  0.76036  1.0000
  H   H1113     1.0  0.28608  0.48972  0.87168  1.0000
  H   H1114     1.0  0.47750  0.48824  0.81433  1.0000
  H   H1115     1.0  0.22210  0.49425  0.66816  1.0000
  H   H1116     1.0  0.28722  0.50464  0.88785  1.0000
  C   C637      1.0  0.01217  0.49140  0.75908  1.0000
  C   C638      1.0  0.21501  0.50092  0.48957  1.0000
  H   H1117     1.0  0.26092  0.48732  0.77784  1.0000
  C   C639      1.0  0.00207  0.52263  0.62028  1.0000
  H   H1118     1.0  0.04158  0.58384  0.48359  1.0000
  H   H1119     1.0  0.22696  0.50436  0.50433  1.0000
  H   H1120     1.0  0.49357  0.52858  0.87709  1.0000
  C   C640      1.0  0.01027  0.56475  0.48097  1.0000
  H   H1121     1.0  0.09598  0.59028  0.48781  1.0000
  C   C641      1.0  0.00779  0.48733  0.66229  1.0000
  C   C642      1.0  0.05375  0.48777  0.59478  1.0000
  C   C643      1.0  0.49517  0.51988  0.86555  1.0000
  H   H1122     1.0  0.49306  0.52372  0.84537  1.0000
  H   H1123     1.0  0.99736  0.57363  0.48584  1.0000
  H   H1124     1.0  0.49622  0.57596  0.86678  1.0000
  H   H1125     1.0  0.25590  0.49047  0.67543  1.0000
  H   H1126     1.0  0.45120  0.48660  0.89327  1.0000
  H   H1127     1.0  0.48405  0.57660  0.97771  1.0000
  H   H1128     1.0  0.03277  0.48712  0.76226  1.0000
  Fe  Fe72      1.0  0.36540  0.76503  0.18548  1.0000
  S   S142      1.0  0.37752  0.77417  0.22002  1.0000
  H   H1129     1.0  0.24237  0.80458  0.15482  1.0000
  Fe  Fe73      1.0  0.35575  0.79317  0.15705  1.0000
  S   S143      1.0  0.36594  0.80345  0.19044  1.0000
  S   S144      1.0  0.34565  0.80581  0.12022  1.0000
  Fe  Fe74      1.0  0.40094  0.78806  0.19323  1.0000
  S   S145      1.0  0.44173  0.79682  0.19047  1.0000
  Fe  Fe75      1.0  0.34136  0.78843  0.21337  1.0000
  S   S146      1.0  0.31172  0.79298  0.24598  1.0000
  S   S147      1.0  0.39111  0.77803  0.15910  1.0000
  S   S148      1.0  0.32875  0.77905  0.17971  1.0000
  Fe  Fe76      1.0  0.14131  0.77595  0.32828  1.0000
  S   S149      1.0  0.13189  0.77548  0.28790  1.0000
  H   H1130     1.0  0.48718  0.84109  0.06174  1.0000
  Fe  Fe77      1.0  0.12730  0.80655  0.32641  1.0000
  S   S150      1.0  0.11760  0.80733  0.28504  1.0000
  S   S151      1.0  0.11671  0.82717  0.34133  1.0000
  Fe  Fe78      1.0  0.09566  0.78887  0.29661  1.0000
  S   S152      1.0  0.05633  0.78075  0.28815  1.0000
  Fe  Fe79      1.0  0.15513  0.79377  0.28087  1.0000
  S   S153      1.0  0.18497  0.79363  0.24691  1.0000
  S   S154      1.0  0.10394  0.78849  0.33773  1.0000
  S   S155      1.0  0.16605  0.79393  0.32133  1.0000
  H   H1131     1.0  0.43492  0.74063  0.12956  1.0000
  H   H1132     1.0  0.32879  0.85544  0.18893  1.0000
  S   S156      1.0  0.08683  0.92400  0.40659  1.0000
  Fe  Fe80      1.0  0.36135  0.88485  0.06879  1.0000
  S   S157      1.0  0.37115  0.90261  0.08827  1.0000
  S   S158      1.0  0.35812  0.86893  0.10245  1.0000
  Fe  Fe81      1.0  0.36673  0.90168  0.01687  1.0000
  S   S159      1.0  0.37640  0.92024  0.03401  1.0000
  H   H1133     1.0  0.19914  0.81182  0.20035  1.0000
  Fe  Fe82      1.0  0.40256  0.90610  0.05850  1.0000
  S   S160      1.0  0.44065  0.91231  0.07197  1.0000
  Fe  Fe83      1.0  0.34403  0.91514  0.06252  1.0000
  S   S161      1.0  0.31732  0.93095  0.08047  1.0000
  S   S162      1.0  0.39519  0.88761  0.04025  1.0000
  S   S163      1.0  0.33168  0.89740  0.04401  1.0000
  C   C644      1.0  0.41591  0.94005  0.98903  1.0000
  H   H1134     1.0  0.21100  0.88944  0.44861  1.0000
  S   S164      1.0  0.15978  0.97282  0.38986  1.0000
  H   H1135     1.0  0.99891  0.79871  0.37049  1.0000
  C   C645      1.0  0.16977  0.97031  0.26634  1.0000
  Fe  Fe84      1.0  0.36316  0.97534  0.17627  1.0000
  H   H1136     1.0  0.21870  0.97467  0.28278  1.0000
  S   S165      1.0  0.37624  0.95439  0.16679  1.0000
  C   C646      1.0  0.02070  0.89440  0.39310  1.0000
  C   C647      1.0  0.03983  0.80791  0.34339  1.0000
  H   H1137     1.0  0.04629  0.80399  0.36255  1.0000
  H   H1138     1.0  0.46082  0.93265  0.10578  1.0000
  H   H1139     1.0  0.21504  0.95717  0.28200  1.0000
  H   H1140     1.0  0.10879  0.74661  0.28553  1.0000
  H   H1141     1.0  0.02318  0.95760  0.39709  1.0000
  H   H1142     1.0  0.19039  0.93883  0.38010  1.0000
  C   C648      1.0  0.46902  0.90457  0.05794  1.0000
  C   C649      1.0  0.46702  0.89514  0.04047  1.0000
  H   H1143     1.0  0.11131  0.86659  0.39025  1.0000
  H   H1144     1.0  0.44788  0.89274  0.03499  1.0000
  H   H1145     1.0  0.01294  0.84888  0.37933  1.0000
  C   C650      1.0  0.33398  0.93867  0.10286  1.0000
  C   C651      1.0  0.31954  0.94636  0.12020  1.0000
  C   C652      1.0  0.33260  0.95193  0.13904  1.0000
  C   C653      1.0  0.36010  0.94964  0.14080  1.0000
  C   C654      1.0  0.37460  0.94240  0.12287  1.0000
  C   C655      1.0  0.36161  0.93700  0.10385  1.0000
  H   H1146     1.0  0.29818  0.94775  0.11942  1.0000
  H   H1147     1.0  0.32127  0.95751  0.15283  1.0000
  H   H1148     1.0  0.39588  0.94067  0.12404  1.0000
  H   H1149     1.0  0.37303  0.93140  0.09017  1.0000
  H   H1150     1.0  0.45212  0.84765  0.04022  1.0000
  C   C656      1.0  0.10708  0.93759  0.40272  1.0000
  C   C657      1.0  0.13042  0.93741  0.41592  1.0000
  C   C658      1.0  0.14644  0.94833  0.41214  1.0000
  C   C659      1.0  0.13915  0.95944  0.39519  1.0000
  C   C660      1.0  0.11558  0.95971  0.38240  1.0000
  C   C661      1.0  0.09967  0.94878  0.38607  1.0000
  H   H1151     1.0  0.13619  0.92883  0.42890  1.0000
  H   H1152     1.0  0.16461  0.94811  0.42218  1.0000
  H   H1153     1.0  0.10970  0.96826  0.36940  1.0000
  H   H1154     1.0  0.08168  0.94897  0.37578  1.0000
  C   C662      1.0  0.02396  0.78880  0.28688  1.0000
  C   C663      1.0  0.01942  0.80247  0.27913  1.0000
  S   S166      1.0  0.36536  0.74232  0.19521  1.0000
  H   H1155     1.0  0.03605  0.80859  0.27486  1.0000
  C   C664      1.0  0.12327  0.83547  0.36837  1.0000
  C   C665      1.0  0.11419  0.84906  0.36907  1.0000
  C   C666      1.0  0.11819  0.85611  0.39018  1.0000
  C   C667      1.0  0.13190  0.84971  0.41073  1.0000
  C   C668      1.0  0.14125  0.83615  0.40996  1.0000
  C   C669      1.0  0.13683  0.82903  0.38900  1.0000
  H   H1156     1.0  0.10442  0.85424  0.35292  1.0000
  H   H1157     1.0  0.08041  0.94886  0.47448  1.0000
  H   H1158     1.0  0.15201  0.83110  0.42566  1.0000
  H   H1159     1.0  0.14404  0.81860  0.38875  1.0000
  C   C670      1.0  0.47429  0.79110  0.19996  1.0000
  C   C671      1.0  0.21008  0.96584  0.29346  1.0000
  S   S167      1.0  0.08005  0.88777  0.43819  1.0000
  H   H1160     1.0  0.43435  0.96917  0.16964  1.0000
  H   H1161     1.0  0.25573  0.98231  0.08157  1.0000
  C   C672      1.0  0.35043  0.82325  0.11509  1.0000
  C   C673      1.0  0.35604  0.83070  0.13490  1.0000
  C   C674      1.0  0.35838  0.84463  0.13053  1.0000
  C   C675      1.0  0.35548  0.85131  0.10625  1.0000
  C   C676      1.0  0.35023  0.84390  0.08629  1.0000
  C   C677      1.0  0.34755  0.82995  0.09075  1.0000
  H   H1162     1.0  0.35835  0.82576  0.15367  1.0000
  H   H1163     1.0  0.36251  0.85026  0.14611  1.0000
  H   H1164     1.0  0.34777  0.84893  0.06753  1.0000
  H   H1165     1.0  0.34308  0.82431  0.07530  1.0000
  C   C678      1.0  0.27655  0.79277  0.24601  1.0000
  C   C679      1.0  0.26337  0.78988  0.22481  1.0000
  C   C680      1.0  0.23541  0.79025  0.22540  1.0000
  C   C681      1.0  0.22022  0.79325  0.24730  1.0000
  C   C682      1.0  0.23342  0.79591  0.26862  1.0000
  C   C683      1.0  0.26138  0.79571  0.26793  1.0000
  H   H1166     1.0  0.27471  0.78743  0.20793  1.0000
  H   H1167     1.0  0.22546  0.78809  0.20883  1.0000
  H   H1168     1.0  0.22205  0.79837  0.28549  1.0000
  H   H1169     1.0  0.27131  0.79795  0.28446  1.0000
  Fe  Fe85      1.0  0.09844  0.90754  0.43665  1.0000
  H   H1170     1.0  0.25827  0.79087  0.12065  1.0000
  H   H1171     1.0  0.01922  0.88543  0.35792  1.0000
  C   C684      1.0  0.07356  0.75071  0.32719  1.0000
  H   H1172     1.0  0.03187  0.90922  0.36240  1.0000
  C   C685      1.0  0.29700  0.96520  0.29929  1.0000
  H   H1173     1.0  0.04030  0.79943  0.33135  1.0000
  H   H1174     1.0  0.04258  0.84686  0.45199  1.0000
  H   H1175     1.0  0.17675  0.82563  0.18906  1.0000
  H   H1176     1.0  0.34764  0.94489  0.99909  1.0000
  H   H1177     1.0  0.00734  0.85568  0.42052  1.0000
  H   H1178     1.0  0.30111  0.86635  0.19901  1.0000
  H   H1179     1.0  0.31579  0.74904  0.25302  1.0000
  H   H1180     1.0  0.05067  0.83667  0.35583  1.0000
  H   H1181     1.0  0.16030  0.75093  0.29646  1.0000
  H   H1182     1.0  0.49482  0.73693  0.17915  1.0000
  H   H1183     1.0  0.36419  0.98028  0.00699  1.0000
  H   H1184     1.0  0.17952  0.83950  0.46856  1.0000
  C   C686      1.0  0.09084  0.74670  0.27427  1.0000
  H   H1185     1.0  0.48837  0.88172  0.01601  1.0000
  N   N35       1.0  0.01077  0.86979  0.38734  1.0000
  H   H1186     1.0  0.24189  0.75306  0.33882  1.0000
  C   C687      1.0  0.47934  0.77981  0.21713  1.0000
  H   H1187     1.0  0.99974  0.89851  0.39294  1.0000
  N   N36       1.0  0.44699  0.85306  0.09384  1.0000
  C   C688      1.0  0.45036  0.83893  0.10658  1.0000
  C   C689      1.0  0.15607  0.74157  0.30697  1.0000
  C   C690      1.0  0.43543  0.86202  0.11350  1.0000
  C   C691      1.0  0.42795  0.85417  0.07259  1.0000
  C   C692      1.0  0.43419  0.84467  0.05149  1.0000
  C   C693      1.0  0.42465  0.83275  0.11774  1.0000
  H   H1188     1.0  0.46433  0.83862  0.12229  1.0000
  C   C694      1.0  0.44999  0.95235  0.19387  1.0000
  H   H1189     1.0  0.12590  0.75250  0.21634  1.0000
  C   C695      1.0  0.41147  0.84565  0.03326  1.0000
  C   C696      1.0  0.43028  0.81814  0.12834  1.0000
  C   C697      1.0  0.20523  0.93282  0.36897  1.0000
  C   C698      1.0  0.45255  0.98493  0.12922  1.0000
  H   H1190     1.0  0.29550  0.73702  0.17280  1.0000
  C   C699      1.0  0.48997  0.88894  0.02964  1.0000
  H   H1191     1.0  0.05428  0.81504  0.33498  1.0000
  H   H1192     1.0  0.29000  0.79795  0.11910  1.0000
  H   H1193     1.0  0.41484  0.85954  0.11937  1.0000
  H   H1194     1.0  0.40737  0.85280  0.08016  1.0000
  H   H1195     1.0  0.42703  0.86447  0.06283  1.0000
  H   H1196     1.0  0.43706  0.83403  0.05919  1.0000
  H   H1197     1.0  0.27376  0.73856  0.24630  1.0000
  H   H1198     1.0  0.41593  0.83828  0.13359  1.0000
  H   H1199     1.0  0.40969  0.83287  0.10310  1.0000
  H   H1200     1.0  0.42050  0.87989  0.08932  1.0000
  C   C700      1.0  0.07819  0.74884  0.35555  1.0000
  H   H1201     1.0  0.26572  0.97933  0.31008  1.0000
  C   C701      1.0  0.12721  0.97312  0.46652  1.0000
  C   C702      1.0  0.21711  0.97555  0.33300  1.0000
  H   H1202     1.0  0.08015  0.98448  0.41918  1.0000
  H   H1203     1.0  0.43777  0.94039  0.98943  1.0000
  H   H1204     1.0  0.40776  0.85614  0.02467  1.0000
  H   H1205     1.0  0.41664  0.83907  0.01783  1.0000
  H   H1206     1.0  0.49295  0.94978  0.10981  1.0000
  C   C703      1.0  0.03460  0.74349  0.25488  1.0000
  S   S168      1.0  0.37238  0.98409  0.21207  1.0000
  H   H1207     1.0  0.43660  0.94563  0.09394  1.0000
  C   C704      1.0  0.04762  0.84534  0.34138  1.0000
  H   H1208     1.0  0.42925  0.94671  0.22950  1.0000
  H   H1209     1.0  0.26060  0.95603  0.33318  1.0000
  H   H1210     1.0  0.18572  0.87163  0.46961  1.0000
  C   C705      1.0  0.33924  0.96149  0.03785  1.0000
  N   N37       1.0  0.23879  0.74847  0.28487  1.0000
  C   C706      1.0  0.21933  0.74549  0.26584  1.0000
  H   H1211     1.0  0.30179  0.76485  0.23838  1.0000
  C   C707      1.0  0.22498  0.75855  0.30147  1.0000
  C   C708      1.0  0.26358  0.75428  0.27271  1.0000
  H   H1212     1.0  0.20314  0.73980  0.27551  1.0000
  C   C709      1.0  0.20596  0.75791  0.25059  1.0000
  H   H1213     1.0  0.19466  0.92674  0.35678  1.0000
  C   C710      1.0  0.22661  0.77348  0.33736  1.0000
  H   H1214     1.0  0.29922  0.95954  0.02384  1.0000
  H   H1215     1.0  0.43790  0.81183  0.11314  1.0000
  C   C711      1.0  0.19306  0.75405  0.22716  1.0000
  H   H1216     1.0  0.17990  0.97818  0.25426  1.0000
  C   C712      1.0  0.30636  0.97278  0.06507  1.0000
  H   H1217     1.0  0.07549  0.85250  0.44616  1.0000
  C   C713      1.0  0.01203  0.81501  0.34487  1.0000
  H   H1218     1.0  0.20553  0.75506  0.30911  1.0000
  H   H1219     1.0  0.22029  0.76833  0.29021  1.0000
  H   H1220     1.0  0.26077  0.76545  0.26961  1.0000
  C   C714      1.0  0.26759  0.96990  0.30060  1.0000
  H   H1221     1.0  0.00783  0.81997  0.32574  1.0000
  H   H1222     1.0  0.26004  0.75420  0.23169  1.0000
  H   H1223     1.0  0.19020  0.76285  0.26251  1.0000
  H   H1224     1.0  0.22060  0.76531  0.24443  1.0000
  C   C715      1.0  0.02271  0.94664  0.39570  1.0000
  H   H1225     1.0  0.23849  0.93561  0.34296  1.0000
  C   C716      1.0  0.47157  0.95306  0.10915  1.0000
  H   H1226     1.0  0.46307  0.77412  0.22488  1.0000
  Fe  Fe86      1.0  0.12016  0.87845  0.44873  1.0000
  H   H1227     1.0  0.04885  0.86402  0.45611  1.0000
  H   H1228     1.0  0.28321  0.82099  0.22145  1.0000
  H   H1229     1.0  0.31384  0.94511  0.98981  1.0000
  C   C717      1.0  0.03746  0.90575  0.38203  1.0000
  H   H1230     1.0  0.12139  0.97672  0.44698  1.0000
  H   H1231     1.0  0.17323  0.96057  0.25793  1.0000
  H   H1232     1.0  0.46463  0.75335  0.15381  1.0000
  H   H1233     1.0  0.30487  0.96335  0.31857  1.0000
  H   H1234     1.0  0.29272  0.85436  0.09469  1.0000
  N   N38       1.0  0.33529  0.90229  0.16982  1.0000
  C   C718      1.0  0.32125  0.91516  0.17761  1.0000
  C   C719      1.0  0.33026  0.90132  0.14235  1.0000
  C   C720      1.0  0.32486  0.89058  0.18632  1.0000
  C   C721      1.0  0.36484  0.90199  0.17299  1.0000
  C   C722      1.0  0.37890  0.91414  0.15993  1.0000
  C   C723      1.0  0.32742  0.91902  0.20418  1.0000
  C   C724      1.0  0.33252  0.87647  0.17715  1.0000
  C   C725      1.0  0.30075  0.90072  0.13597  1.0000
  C   C726      1.0  0.29822  0.89630  0.10954  1.0000
  C   C727      1.0  0.40743  0.91409  0.16819  1.0000
  C   C728      1.0  0.31307  0.93252  0.20935  1.0000
  C   C729      1.0  0.32303  0.86531  0.19621  1.0000
  H   H1235     1.0  0.29937  0.91459  0.17748  1.0000
  H   H1236     1.0  0.32537  0.92375  0.16345  1.0000
  H   H1237     1.0  0.33727  0.91026  0.13062  1.0000
  H   H1238     1.0  0.34215  0.89257  0.13516  1.0000
  H   H1239     1.0  0.30288  0.89174  0.18876  1.0000
  H   H1240     1.0  0.33201  0.89042  0.20586  1.0000
  H   H1241     1.0  0.36945  0.90091  0.19340  1.0000
  H   H1242     1.0  0.37502  0.89297  0.16525  1.0000
  H   H1243     1.0  0.36877  0.92376  0.16475  1.0000
  H   H1244     1.0  0.37945  0.91385  0.13910  1.0000
  H   H1245     1.0  0.32090  0.91131  0.21907  1.0000
  H   H1246     1.0  0.34890  0.92005  0.20593  1.0000
  H   H1247     1.0  0.35430  0.87467  0.17441  1.0000
  H   H1248     1.0  0.32337  0.87537  0.15894  1.0000
  H   H1249     1.0  0.29024  0.89360  0.14934  1.0000
  H   H1250     1.0  0.29025  0.91084  0.13654  1.0000
  H   H1251     1.0  0.30828  0.90313  0.09521  1.0000
  H   H1252     1.0  0.30709  0.88589  0.10841  1.0000
  H   H1253     1.0  0.27698  0.89659  0.10502  1.0000
  H   H1254     1.0  0.41883  0.90453  0.16462  1.0000
  H   H1255     1.0  0.41730  0.92249  0.15738  1.0000
  H   H1256     1.0  0.40768  0.91555  0.18864  1.0000
  H   H1257     1.0  0.31745  0.93500  0.22858  1.0000
  H   H1258     1.0  0.32000  0.94064  0.19545  1.0000
  H   H1259     1.0  0.29128  0.93215  0.20824  1.0000
  H   H1260     1.0  0.33236  0.86554  0.21466  1.0000
  H   H1261     1.0  0.26144  0.97218  0.28080  1.0000
  H   H1262     1.0  0.01250  0.82289  0.35803  1.0000
  H   H1263     1.0  0.42139  0.89617  0.12087  1.0000
  H   H1264     1.0  0.27958  0.78766  0.14711  1.0000
  C   C730      1.0  0.30024  0.82274  0.20795  1.0000
  H   H1265     1.0  0.06593  0.84579  0.32906  1.0000
  C   C731      1.0  0.24613  0.82535  0.18798  1.0000
  C   C732      1.0  0.27336  0.74957  0.24663  1.0000
  C   C733      1.0  0.43367  0.87737  0.10539  1.0000
  H   H1266     1.0  0.21709  0.92589  0.38237  1.0000
  N   N39       1.0  0.33323  0.97394  0.05163  1.0000
  H   H1267     1.0  0.24772  0.81514  0.19827  1.0000
  C   C734      1.0  0.32013  0.95947  0.01671  1.0000
  C   C735      1.0  0.22344  0.94206  0.35298  1.0000
  H   H1268     1.0  0.99855  0.98225  0.34261  1.0000
  H   H1269     1.0  0.25329  0.94992  0.30445  1.0000
  H   H1270     1.0  0.22561  0.78279  0.32424  1.0000
  C   C736      1.0  0.45893  0.95420  0.13608  1.0000
  H   H1271     1.0  0.44055  0.96344  0.22694  1.0000
  H   H1272     1.0  0.04551  0.75112  0.24296  1.0000
  H   H1273     1.0  0.08881  0.75723  0.31831  1.0000
  H   H1274     1.0  0.28370  0.80620  0.17521  1.0000
  H   H1275     1.0  0.30910  0.81288  0.20279  1.0000
  H   H1276     1.0  0.32182  0.96749  0.00093  1.0000
  H   H1277     1.0  0.18799  0.89684  0.47110  1.0000
  H   H1278     1.0  0.48668  0.98273  0.15161  1.0000
  H   H1279     1.0  0.30187  0.84585  0.13812  1.0000
  C   C737      1.0  0.25086  0.95903  0.31506  1.0000
  S   S169      1.0  0.13880  0.85833  0.43724  1.0000
  C   C738      1.0  0.10174  0.74366  0.24747  1.0000
  C   C739      1.0  0.27279  0.79532  0.13184  1.0000
  H   H1280     1.0  0.46940  0.96286  0.09756  1.0000
  H   H1281     1.0  0.48324  0.86242  0.09995  1.0000
  C   C740      1.0  0.25978  0.80782  0.14299  1.0000
  H   H1282     1.0  0.45613  0.75282  0.18720  1.0000
  H   H1283     1.0  0.45856  0.94378  0.14533  1.0000
  C   C741      1.0  0.01867  0.86446  0.41365  1.0000
  H   H1284     1.0  0.23778  0.77536  0.35402  1.0000
  H   H1285     1.0  0.23391  0.94759  0.36603  1.0000
  C   C742      1.0  0.04310  0.74293  0.28254  1.0000
  C   C743      1.0  0.27591  0.85194  0.10812  1.0000
  H   H1286     1.0  0.46173  0.97280  0.18638  1.0000
  N   N40       1.0  0.22170  0.96301  0.31929  1.0000
  H   H1287     1.0  0.17885  0.74625  0.23248  1.0000
  C   C744      1.0  0.15196  0.74097  0.33319  1.0000
  H   H1288     1.0  0.26090  0.76454  0.31833  1.0000
  H   H1289     1.0  0.19801  0.82754  0.21458  1.0000
  H   H1290     1.0  0.00052  0.75789  0.25943  1.0000
  C   C745      1.0  0.20755  0.95158  0.33342  1.0000
  H   H1291     1.0  0.05306  0.85048  0.40638  1.0000
  S   S170      1.0  0.13939  0.89819  0.44395  1.0000
  C   C746      1.0  0.17970  0.96911  0.29323  1.0000
  H   H1292     1.0  0.09787  0.74354  0.35926  1.0000
  C   C747      1.0  0.21799  0.82779  0.17715  1.0000
  H   H1293     1.0  0.20074  0.94479  0.31995  1.0000
  C   C748      1.0  0.11798  0.75498  0.23529  1.0000
  H   H1294     1.0  0.03422  0.91436  0.39376  1.0000
  C   C749      1.0  0.35344  0.97470  0.07150  1.0000
  H   H1295     1.0  0.35940  0.96115  0.02882  1.0000
  H   H1296     1.0  0.16856  0.96139  0.30462  1.0000
  H   H1297     1.0  0.44041  0.94475  0.18422  1.0000
  C   C750      1.0  0.24057  0.76180  0.32435  1.0000
  H   H1298     1.0  0.26797  0.86134  0.11611  1.0000
  H   H1299     1.0  0.30826  0.97312  0.28848  1.0000
  H   H1300     1.0  0.33892  0.83084  0.20943  1.0000
  H   H1301     1.0  0.27023  0.97101  0.10675  1.0000
  H   H1302     1.0  0.49637  0.94519  0.16714  1.0000
  H   H1303     1.0  0.28668  0.84209  0.18943  1.0000
  C   C751      1.0  0.23085  0.97533  0.35848  1.0000
  H   H1304     1.0  0.39538  0.96914  0.10400  1.0000
  C   C752      1.0  0.43187  0.95587  0.21643  1.0000
  H   H1305     1.0  0.25577  0.84748  0.15707  1.0000
  H   H1306     1.0  0.25314  0.81497  0.12696  1.0000
  C   C753      1.0  0.01304  0.90182  0.46213  1.0000
  S   S171      1.0  0.15263  0.75561  0.34942  1.0000
  H   H1307     1.0  0.03118  0.90692  0.46114  1.0000
  H   H1308     1.0  0.22161  0.96815  0.37279  1.0000
  H   H1309     1.0  0.21342  0.83873  0.17229  1.0000
  C   C754      1.0  0.32109  0.82908  0.22194  1.0000
  H   H1310     1.0  0.31283  0.83871  0.22883  1.0000
  H   H1311     1.0  0.17488  0.97888  0.30091  1.0000
  H   H1312     1.0  0.24609  0.83240  0.20300  1.0000
  C   C755      1.0  0.27920  0.81401  0.15943  1.0000
  H   H1313     1.0  0.24625  0.83542  0.13771  1.0000
  H   H1314     1.0  0.21611  0.82266  0.15988  1.0000
  H   H1315     1.0  0.32728  0.82217  0.23856  1.0000
  H   H1316     1.0  0.29376  0.83245  0.12002  1.0000
  H   H1317     1.0  0.29839  0.81494  0.14860  1.0000
  N   N41       1.0  0.26968  0.82716  0.16960  1.0000
  H   H1318     1.0  0.49566  0.91519  0.07787  1.0000
  H   H1319     1.0  0.43473  0.88326  0.14374  1.0000
  H   H1320     1.0  0.20621  0.77109  0.34399  1.0000
  H   H1321     1.0  0.26029  0.84799  0.09746  1.0000
  C   C756      1.0  0.26292  0.83801  0.14869  1.0000
  C   C757      1.0  0.28565  0.84148  0.12910  1.0000
  H   H1322     1.0  0.33953  0.95244  0.05168  1.0000
  H   H1323     1.0  0.05890  0.90240  0.38206  1.0000
  H   H1324     1.0  0.31037  0.83232  0.17160  1.0000
  C   C758      1.0  0.29199  0.83177  0.18383  1.0000
  H   H1325     1.0  0.10544  0.76458  0.23302  1.0000
  H   H1326     1.0  0.44713  0.86029  0.13094  1.0000
  H   H1327     1.0  0.03221  0.94408  0.37734  1.0000
  H   H1328     1.0  0.32289  0.93758  0.02061  1.0000
  H   H1329     1.0  0.04687  0.87974  0.37630  1.0000
  H   H1330     1.0  0.08574  0.74236  0.23464  1.0000
  H   H1331     1.0  0.18904  0.95555  0.34327  1.0000
  H   H1332     1.0  0.08247  0.75729  0.27309  1.0000
  H   H1333     1.0  0.38977  0.97360  0.04638  1.0000
  H   H1334     1.0  0.13491  0.75632  0.24713  1.0000
  H   H1335     1.0  0.41120  0.93004  0.98376  1.0000
  H   H1336     1.0  0.09426  0.95661  0.44534  1.0000
  H   H1337     1.0  0.29031  0.97388  0.05129  1.0000
  H   H1338     1.0  0.40750  0.94135  0.00837  1.0000
  C   C759      1.0  0.49502  0.84749  0.07506  1.0000
  H   H1339     1.0  0.20839  0.75021  0.21351  1.0000
  H   H1340     1.0  0.44493  0.81742  0.14343  1.0000
  H   H1341     1.0  0.41635  0.73946  0.15938  1.0000
  H   H1342     1.0  0.03449  0.94119  0.41110  1.0000
  H   H1343     1.0  0.18213  0.76308  0.21780  1.0000
  C   C760      1.0  0.05400  0.85550  0.44445  1.0000
  C   C761      1.0  0.47145  0.75560  0.17239  1.0000
  C   C762      1.0  0.02511  0.88206  0.37759  1.0000
  H   H1344     1.0  0.05947  0.85894  0.36658  1.0000
  C   C763      1.0  0.20578  0.88981  0.46907  1.0000
  C   C764      1.0  0.19677  0.82292  0.19653  1.0000
  H   H1345     1.0  0.99952  0.74817  0.23278  1.0000
  H   H1346     1.0  0.46716  0.94229  0.07614  1.0000
  C   C765      1.0  0.47361  0.85800  0.08452  1.0000
  H   H1347     1.0  0.28027  0.75234  0.28582  1.0000
  H   H1348     1.0  0.06311  0.97187  0.40594  1.0000
  H   H1349     1.0  0.41205  0.95991  0.20995  1.0000
  C   C766      1.0  0.42216  0.88525  0.12703  1.0000
  H   H1350     1.0  0.45340  0.88107  0.09980  1.0000
  C   C767      1.0  0.27077  0.98114  0.09634  1.0000
  C   C768      1.0  0.04815  0.85952  0.41668  1.0000
  H   H1351     1.0  0.06151  0.86738  0.40950  1.0000
  H   H1352     1.0  0.34792  0.96848  0.08921  1.0000
  H   H1353     1.0  0.03995  0.75342  0.28770  1.0000
  H   H1354     1.0  0.40169  0.88244  0.13231  1.0000
  C   C769      1.0  0.04271  0.85833  0.35426  1.0000
  H   H1355     1.0  0.04317  0.86685  0.33928  1.0000
  N   N42       1.0  0.47239  0.96287  0.15260  1.0000
  H   H1356     1.0  0.30514  0.96259  0.07526  1.0000
  H   H1357     1.0  0.35414  0.73906  0.14221  1.0000
  H   H1358     1.0  0.43762  0.95769  0.13406  1.0000
  H   H1359     1.0  0.41167  0.81408  0.13671  1.0000
  C   C770      1.0  0.01556  0.85897  0.36919  1.0000
  H   H1360     1.0  0.47090  0.86638  0.06927  1.0000
  H   H1361     1.0  0.05380  0.75614  0.32484  1.0000
  H   H1362     1.0  0.03084  0.84383  0.32946  1.0000
  H   H1363     1.0  0.47345  0.76658  0.17191  1.0000
  H   H1364     1.0  0.46893  0.94772  0.20145  1.0000
  H   H1365     1.0  0.00538  0.77042  0.29837  1.0000
  H   H1366     1.0  0.30747  0.75058  0.22026  1.0000
  C   C771      1.0  0.32664  0.94595  0.00593  1.0000
  H   H1367     1.0  0.45971  0.83184  0.09347  1.0000
  H   H1368     1.0  0.07777  0.75882  0.36307  1.0000
  C   C772      1.0  0.09804  0.95366  0.46561  1.0000
  H   H1369     1.0  0.02651  0.89173  0.41286  1.0000
  H   H1370     1.0  0.22299  0.98447  0.32058  1.0000
  C   C773      1.0  0.45814  0.94281  0.09550  1.0000
  H   H1371     1.0  0.14393  0.96543  0.46383  1.0000
  C   C774      1.0  0.45442  0.96502  0.17550  1.0000
  H   H1372     1.0  0.06252  0.74302  0.36575  1.0000
  H   H1373     1.0  0.40063  0.98464  0.08462  1.0000
  C   C775      1.0  0.47743  0.97638  0.13891  1.0000
  H   H1374     1.0  0.17553  0.98079  0.46331  1.0000
  C   C776      1.0  0.38250  0.96960  0.06530  1.0000
  H   H1375     1.0  0.42173  0.96972  0.07993  1.0000
  H   H1376     1.0  0.49209  0.80726  0.17720  1.0000
  H   H1377     1.0  0.19555  0.97775  0.33731  1.0000
  H   H1378     1.0  0.30016  0.95588  0.28947  1.0000
  H   H1379     1.0  0.38405  0.95845  0.06590  1.0000
  C   C777      1.0  0.06045  0.98051  0.41769  1.0000
  H   H1380     1.0  0.39303  0.84233  0.04330  1.0000
  H   H1381     1.0  0.02876  0.73724  0.29496  1.0000
  H   H1382     1.0  0.14814  0.97323  0.26676  1.0000
  H   H1383     1.0  0.05283  0.97684  0.43682  1.0000
  H   H1384     1.0  0.25242  0.97263  0.35657  1.0000
  H   H1385     1.0  0.26007  0.73757  0.31583  1.0000
  C   C778      1.0  0.30127  0.75377  0.23923  1.0000
  C   C779      1.0  0.40114  0.97353  0.08471  1.0000
  C   C780      1.0  0.00505  0.74774  0.25284  1.0000
  C   C781      1.0  0.00213  0.78096  0.29216  1.0000
  H   H1386     1.0  0.31227  0.98221  0.10029  1.0000
  N   N43       1.0  0.07113  0.73748  0.28755  1.0000
  H   H1387     1.0  0.47108  0.91243  0.99141  1.0000
  H   H1388     1.0  0.11530  0.94611  0.46698  1.0000
  C   C782      1.0  0.29842  0.98317  0.08453  1.0000
  H   H1389     1.0  0.22863  0.73875  0.25209  1.0000
  H   H1390     1.0  0.00053  0.86029  0.35429  1.0000
  H   H1391     1.0  0.44016  0.97917  0.11823  1.0000
  H   H1392     1.0  0.35335  0.98520  0.07690  1.0000
  C   C783      1.0  0.49400  0.90787  0.06442  1.0000
  S   S172      1.0  0.32234  0.98560  0.17394  1.0000
  H   H1393     1.0  0.26923  0.73824  0.19669  1.0000
  H   H1394     1.0  0.01311  0.87202  0.42737  1.0000
  H   H1395     1.0  0.49211  0.97525  0.12287  1.0000
  H   H1396     1.0  0.40734  0.96089  0.97794  1.0000
  C   C784      1.0  0.49575  0.79845  0.19031  1.0000
  C   C785      1.0  0.07491  0.73696  0.31572  1.0000
  S   S173      1.0  0.08797  0.91084  0.47704  1.0000
  H   H1397     1.0  0.02194  0.98655  0.40410  1.0000
  C   C786      1.0  0.33166  0.98656  0.03370  1.0000
  Fe  Fe87      1.0  0.12606  0.93033  0.64695  1.0000
  S   S174      1.0  0.11334  0.93294  0.68765  1.0000
  S   S175      1.0  0.12017  0.91179  0.62712  1.0000
  Fe  Fe88      1.0  0.13629  0.95956  0.63574  1.0000
  S   S176      1.0  0.12348  0.96453  0.67488  1.0000
  Fe  Fe89      1.0  0.14895  0.94572  0.68788  1.0000
  S   S177      1.0  0.17708  0.94661  0.72151  1.0000
  Fe  Fe90      1.0  0.08941  0.95145  0.67130  1.0000
  S   S178      1.0  0.04582  0.95951  0.67715  1.0000
  S   S179      1.0  0.16286  0.94142  0.64827  1.0000
  S   S180      1.0  0.10096  0.94814  0.63122  1.0000
  C   C787      1.0  0.17172  0.86327  0.54677  1.0000
  H   H1398     1.0  0.17473  0.82758  0.49599  1.0000
  S   S181      1.0  0.15385  0.90908  0.51118  1.0000
  H   H1399     1.0  0.17917  0.97254  0.54514  1.0000
  H   H1400     1.0  0.04041  0.95034  0.56713  1.0000
  H   H1401     1.0  0.49305  0.97238  0.78299  1.0000
  C   C788      1.0  0.04899  0.92290  0.61017  1.0000
  H   H1402     1.0  0.15037  0.96295  0.55086  1.0000
  H   H1403     1.0  0.44761  0.96041  0.90348  1.0000
  Fe  Fe91      1.0  0.33940  0.94729  0.84620  1.0000
  S   S182      1.0  0.34949  0.93539  0.81265  1.0000
  S   S183      1.0  0.32156  0.94023  0.88500  1.0000
  Fe  Fe92      1.0  0.35357  0.97322  0.81638  1.0000
  S   S184      1.0  0.36453  0.96327  0.78077  1.0000
  Fe  Fe93      1.0  0.32675  0.95237  0.78935  1.0000
  S   S185      1.0  0.29760  0.94946  0.75744  1.0000
  Fe  Fe94      1.0  0.38609  0.94743  0.80691  1.0000
  S   S186      1.0  0.42868  0.93742  0.80295  1.0000
  S   S187      1.0  0.31507  0.96359  0.82344  1.0000
  S   S188      1.0  0.37665  0.95807  0.84188  1.0000
  C   C789      1.0  0.46080  0.94406  0.80104  1.0000
  H   H1404     1.0  0.43743  0.97331  0.93992  1.0000
  H   H1405     1.0  0.02007  0.92534  0.50306  1.0000
  H   H1406     1.0  0.44759  0.96439  0.78849  1.0000
  H   H1407     1.0  0.00037  0.93107  0.54422  1.0000
  C   C790      1.0  0.33787  0.93047  0.91014  1.0000
  C   C791      1.0  0.32488  0.92907  0.93412  1.0000
  C   C792      1.0  0.18955  0.87610  0.50886  1.0000
  H   H1408     1.0  0.07884  0.93372  0.55391  1.0000
  H   H1409     1.0  0.26993  0.85029  0.54973  1.0000
  C   C793      1.0  0.36283  0.92376  0.90667  1.0000
  H   H1410     1.0  0.30552  0.93418  0.93699  1.0000
  H   H1411     1.0  0.24659  0.87134  0.50938  1.0000
  H   H1412     1.0  0.37302  0.92469  0.88832  1.0000
  N   N44       1.0  0.19344  0.86332  0.52622  1.0000
  H   H1413     1.0  0.05518  0.91023  0.65837  1.0000
  C   C794      1.0  0.03452  0.91075  0.62303  1.0000
  C   C795      1.0  0.21965  0.86272  0.53894  1.0000
  H   H1414     1.0  0.01397  0.87576  0.55504  1.0000
  C   C796      1.0  0.01529  0.95192  0.67410  1.0000
  C   C797      1.0  0.01426  0.93820  0.67157  1.0000
  C   C798      1.0  0.42638  0.95912  0.90022  1.0000
  H   H1415     1.0  0.03241  0.93178  0.67181  1.0000
  H   H1416     1.0  0.22469  0.95604  0.82471  1.0000
  C   C799      1.0  0.26382  0.94943  0.74738  1.0000
  C   C800      1.0  0.24157  0.95185  0.76348  1.0000
  C   C801      1.0  0.21551  0.95098  0.75521  1.0000
  C   C802      1.0  0.21085  0.94792  0.73047  1.0000
  C   C803      1.0  0.23305  0.94589  0.71407  1.0000
  C   C804      1.0  0.25915  0.94658  0.72249  1.0000
  H   H1417     1.0  0.24442  0.95432  0.78241  1.0000
  H   H1418     1.0  0.19875  0.95269  0.76816  1.0000
  H   H1419     1.0  0.23018  0.94348  0.69504  1.0000
  H   H1420     1.0  0.27594  0.94469  0.70966  1.0000
  C   C805      1.0  0.14212  0.91103  0.54253  1.0000
  C   C806      1.0  0.15531  0.91911  0.55731  1.0000
  C   C807      1.0  0.14791  0.91991  0.58300  1.0000
  C   C808      1.0  0.12774  0.91232  0.59426  1.0000
  C   C809      1.0  0.11399  0.90456  0.57929  1.0000
  C   C810      1.0  0.12091  0.90405  0.55342  1.0000
  H   H1421     1.0  0.17166  0.92458  0.54899  1.0000
  H   H1422     1.0  0.15852  0.92598  0.59434  1.0000
  H   H1423     1.0  0.09837  0.89865  0.58787  1.0000
  H   H1424     1.0  0.11061  0.89780  0.54218  1.0000
  N   N45       1.0  0.26695  0.91850  0.82872  1.0000
  C   C811      1.0  0.25211  0.90595  0.83342  1.0000
  C   C812      1.0  0.29016  0.91737  0.84587  1.0000
  C   C813      1.0  0.24837  0.93013  0.83626  1.0000
  C   C814      1.0  0.27601  0.92134  0.80132  1.0000
  C   C815      1.0  0.28319  0.90904  0.78591  1.0000
  C   C816      1.0  0.22489  0.90661  0.82081  1.0000
  C   C817      1.0  0.26064  0.94385  0.83592  1.0000
  C   C818      1.0  0.31121  0.90554  0.84288  1.0000
  C   C819      1.0  0.33206  0.90499  0.86293  1.0000
  C   C820      1.0  0.29648  0.91328  0.76031  1.0000
  C   C821      1.0  0.21523  0.89261  0.81967  1.0000
  C   C822      1.0  0.05069  0.90330  0.64427  1.0000
  H   H1425     1.0  0.24831  0.90354  0.85413  1.0000
  H   H1426     1.0  0.26422  0.89707  0.82727  1.0000
  H   H1427     1.0  0.30142  0.92651  0.84278  1.0000
  H   H1428     1.0  0.28291  0.91684  0.86606  1.0000
  H   H1429     1.0  0.23956  0.92779  0.85566  1.0000
  H   H1430     1.0  0.23145  0.93183  0.82339  1.0000
  H   H1431     1.0  0.26047  0.92758  0.79049  1.0000
  H   H1432     1.0  0.29335  0.92762  0.79993  1.0000
  H   H1433     1.0  0.26503  0.90415  0.78212  1.0000
  H   H1434     1.0  0.29665  0.90134  0.79590  1.0000
  H   H1435     1.0  0.20975  0.91241  0.83200  1.0000
  H   H1436     1.0  0.22583  0.91166  0.80132  1.0000
  H   H1437     1.0  0.27152  0.94628  0.81768  1.0000
  H   H1438     1.0  0.27450  0.94371  0.85153  1.0000
  H   H1439     1.0  0.30232  0.89572  0.84489  1.0000
  H   H1440     1.0  0.32194  0.90695  0.82428  1.0000
  H   H1441     1.0  0.34286  0.91428  0.86065  1.0000
  H   H1442     1.0  0.32274  0.90389  0.88229  1.0000
  H   H1443     1.0  0.34668  0.89630  0.86077  1.0000
  H   H1444     1.0  0.28293  0.92041  0.74885  1.0000
  H   H1445     1.0  0.31508  0.91814  0.76285  1.0000
  H   H1446     1.0  0.30147  0.90433  0.74974  1.0000
  H   H1447     1.0  0.22905  0.88658  0.80759  1.0000
  H   H1448     1.0  0.21360  0.88732  0.83895  1.0000
  H   H1449     1.0  0.19536  0.89350  0.81135  1.0000
  C   C823      1.0  0.09213  0.95282  0.56015  1.0000
  H   H1450     1.0  0.22885  0.95340  0.85852  1.0000
  C   C824      1.0  0.24507  0.86182  0.52166  1.0000
  H   H1451     1.0  0.18063  0.96835  0.49978  1.0000
  N   N46       1.0  0.13617  0.98453  0.47991  1.0000
  H   H1452     1.0  0.24559  0.85328  0.50983  1.0000
  C   C825      1.0  0.41634  0.95017  0.94354  1.0000
  C   C826      1.0  0.20156  0.97646  0.66562  1.0000
  H   H1453     1.0  0.36378  0.96876  0.95404  1.0000
  C   C827      1.0  0.36086  0.91371  0.95055  1.0000
  H   H1454     1.0  0.06339  0.98618  0.58562  1.0000
  H   H1455     1.0  0.16421  0.97311  0.70460  1.0000
  H   H1456     1.0  0.18519  0.97873  0.72734  1.0000
  C   C828      1.0  0.33645  0.92088  0.95433  1.0000
  C   C829      1.0  0.17169  0.87429  0.56541  1.0000
  H   H1457     1.0  0.02020  0.91052  0.52497  1.0000
  H   H1458     1.0  0.43450  0.95218  0.85074  1.0000
  H   H1459     1.0  0.02790  0.98549  0.61095  1.0000
  H   H1460     1.0  0.05244  0.94902  0.59787  1.0000
  H   H1461     1.0  0.15267  0.95825  0.50525  1.0000
  C   C830      1.0  0.38053  0.96197  0.91743  1.0000
  C   C831      1.0  0.05065  0.94318  0.58125  1.0000
  C   C832      1.0  0.00742  0.93568  0.59920  1.0000
  H   H1462     1.0  0.36207  0.98128  0.92799  1.0000
  S   S189      1.0  0.14862  0.97345  0.60216  1.0000
  H   H1463     1.0  0.10659  0.96237  0.49925  1.0000
  H   H1464     1.0  0.27087  0.86835  0.54925  1.0000
  C   C833      1.0  0.26987  0.85987  0.53736  1.0000
  H   H1465     1.0  0.05314  0.92936  0.62531  1.0000
  H   H1466     1.0  0.14804  0.88166  0.59697  1.0000
  H   H1467     1.0  0.24331  0.96913  0.65854  1.0000
  N   N47       1.0  0.03474  0.93119  0.58895  1.0000
  H   H1468     1.0  0.02140  0.87944  0.58636  1.0000
  H   H1469     1.0  0.17140  0.88445  0.55504  1.0000
  C   C834      1.0  0.46459  0.95753  0.79308  1.0000
  H   H1470     1.0  0.00368  0.95757  0.59139  1.0000
  H   H1471     1.0  0.20670  0.85026  0.49690  1.0000
  H   H1472     1.0  0.06866  0.91870  0.60335  1.0000
  C   C835      1.0  0.33194  0.96728  0.92967  1.0000
  H   H1473     1.0  0.42064  0.96669  0.88430  1.0000
  H   H1474     1.0  0.15188  0.86458  0.53825  1.0000
  H   H1475     1.0  0.39289  0.90971  0.92352  1.0000
  H   H1476     1.0  0.28785  0.85951  0.52457  1.0000
  H   H1477     1.0  0.22123  0.87189  0.54884  1.0000
  C   C836      1.0  0.14750  0.87377  0.58369  1.0000
  H   H1478     1.0  0.12888  0.87557  0.57322  1.0000
  H   H1479     1.0  0.01955  0.91427  0.57344  1.0000
  C   C837      1.0  0.37409  0.91530  0.92669  1.0000
  H   H1480     1.0  0.18341  0.97797  0.65425  1.0000
  H   H1481     1.0  0.09188  0.93464  0.58455  1.0000
  C   C838      1.0  0.16978  0.98196  0.71343  1.0000
  H   H1482     1.0  0.03931  0.89516  0.65408  1.0000
  N   N48       1.0  0.40944  0.96160  0.92376  1.0000
  C   C839      1.0  0.49051  0.96204  0.78997  1.0000
  H   H1483     1.0  0.37755  0.96611  0.89746  1.0000
  H   H1484     1.0  0.06962  0.89871  0.63648  1.0000
  C   C840      1.0  0.23933  0.95520  0.83981  1.0000
  H   H1485     1.0  0.22089  0.85405  0.55374  1.0000
  H   H1486     1.0  0.22946  0.97990  0.63262  1.0000
  H   H1487     1.0  0.24878  0.96487  0.83922  1.0000
  C   C841      1.0  0.16176  0.96718  0.51094  1.0000
  H   H1488     1.0  0.17243  0.85337  0.55832  1.0000
  H   H1489     1.0  0.15036  0.84588  0.51848  1.0000
  H   H1490     1.0  0.02403  0.89212  0.56014  1.0000
  H   H1491     1.0  0.14748  0.86386  0.59496  1.0000
  H   H1492     1.0  0.03151  0.90340  0.60930  1.0000
  H   H1493     1.0  0.48090  0.92490  0.81275  1.0000
  C   C842      1.0  0.01244  0.88370  0.56839  1.0000
  C   C843      1.0  0.22512  0.97190  0.64780  1.0000
  H   H1494     1.0  0.19801  0.88455  0.51727  1.0000
  H   H1495     1.0  0.46291  0.94546  0.86842  1.0000
  H   H1496     1.0  0.18932  0.87278  0.57727  1.0000
  H   H1497     1.0  0.43353  0.93699  0.90364  1.0000
  H   H1498     1.0  0.08058  0.95849  0.54485  1.0000
  H   H1499     1.0  0.12426  0.97834  0.51882  1.0000
  H   H1500     1.0  0.40441  0.94324  0.88666  1.0000
  H   H1501     1.0  0.19830  0.96769  0.67961  1.0000
  C   C844      1.0  0.16859  0.96424  0.53872  1.0000
  C   C845      1.0  0.14265  0.98000  0.50697  1.0000
  H   H1502     1.0  0.38245  0.94997  0.97039  1.0000
  C   C846      1.0  0.48342  0.93535  0.80667  1.0000
  H   H1503     1.0  0.24686  0.98392  0.68552  1.0000
  Fe  Fe95      1.0  0.12748  0.90011  0.48496  1.0000
  C   C847      1.0  0.44167  0.94429  0.86545  1.0000
  H   H1504     1.0  0.01494  0.91404  0.63145  1.0000
  H   H1505     1.0  0.22522  0.97574  0.70779  1.0000
  H   H1506     1.0  0.37396  0.95157  0.91831  1.0000
  H   H1507     1.0  0.00833  0.93765  0.61940  1.0000
  H   H1508     1.0  0.19755  0.84169  0.52605  1.0000
  H   H1509     1.0  0.05035  0.91878  0.51765  1.0000
  H   H1510     1.0  0.03104  0.93895  0.53671  1.0000
  C   C848      1.0  0.42517  0.94517  0.89012  1.0000
  H   H1511     1.0  0.43830  0.94877  0.94507  1.0000
  C   C849      1.0  0.36043  0.97042  0.93358  1.0000
  H   H1512     1.0  0.40984  0.94055  0.93790  1.0000
  H   H1513     1.0  0.18161  0.95482  0.54125  1.0000
  C   C850      1.0  0.47843  0.91207  0.97144  1.0000
  H   H1514     1.0  0.43999  0.93433  0.85835  1.0000
  C   C851      1.0  0.41697  0.97461  0.93271  1.0000
  C   C852      1.0  0.03291  0.92239  0.56766  1.0000
  H   H1515     1.0  0.16811  0.87938  0.50746  1.0000
  C   C853      1.0  0.19203  0.85073  0.51294  1.0000
  C   C854      1.0  0.02226  0.92930  0.54245  1.0000
  C   C855      1.0  0.16465  0.84857  0.50266  1.0000
  H   H1516     1.0  0.05254  0.91700  0.56372  1.0000
  C   C856      1.0  0.21916  0.95955  0.63494  1.0000
  H   H1517     1.0  0.23607  0.95672  0.62200  1.0000
  H   H1518     1.0  0.20115  0.96169  0.62364  1.0000
  H   H1519     1.0  0.32594  0.91966  0.97250  1.0000
  H   H1520     1.0  0.09394  0.95933  0.57569  1.0000
  S   S190      1.0  0.03531  0.88498  0.49991  1.0000
  H   H1521     1.0  0.21630  0.95094  0.64929  1.0000
  H   H1522     1.0  0.40417  0.97753  0.94906  1.0000
  H   H1523     1.0  0.13821  0.97932  0.74200  1.0000
  H   H1524     1.0  0.32767  0.96836  0.90922  1.0000
  C   C857      1.0  0.02857  0.92042  0.52080  1.0000
  C   C858      1.0  0.07904  0.93999  0.56997  1.0000
  H   H1525     1.0  0.11234  0.95007  0.55238  1.0000
  H   H1526     1.0  0.31795  0.97431  0.93952  1.0000
  H   H1527     1.0  0.32858  0.95688  0.93757  1.0000
  H   H1528     1.0  0.47626  0.90181  0.96591  1.0000
  H   H1529     1.0  0.24644  0.98145  0.74569  1.0000
  C   C859      1.0  0.40399  0.95124  0.97048  1.0000
  H   H1530     1.0  0.15639  0.85778  0.49172  1.0000
  H   H1531     1.0  0.46598  0.91948  0.95940  1.0000
  S   S191      1.0  0.37454  0.90185  0.97427  1.0000
  H   H1532     1.0  0.08498  0.97278  0.47833  1.0000
  S   S192      1.0  0.11212  0.87960  0.49068  1.0000
  C   C860      1.0  0.20047  0.87575  0.48106  1.0000
  C   C861      1.0  0.16665  0.83704  0.48563  1.0000
  H   H1533     1.0  0.21916  0.86943  0.47917  1.0000
  C   C862      1.0  0.22781  0.98553  0.69644  1.0000
  C   C863      1.0  0.10324  0.96592  0.47919  1.0000
  Fe  Fe96      1.0  0.07341  0.89023  0.47951  1.0000
  C   C864      1.0  0.00970  0.89081  0.47989  1.0000
  H   H1534     1.0  0.22249  0.89372  0.47828  1.0000
  H   H1535     1.0  0.14662  0.83545  0.47926  1.0000
  H   H1536     1.0  0.32295  0.98651  0.86036  1.0000
  H   H1537     1.0  0.43356  0.98597  0.89899  1.0000
  H   H1538     1.0  0.64740  0.08291  0.04187  1.0000
  H   H1539     1.0  0.50754  0.02301  0.28244  1.0000
  C   C865      1.0  0.53751  0.03870  0.19306  1.0000
  H   H1540     1.0  0.60636  0.06285  0.06209  1.0000
  S   S193      1.0  0.65786  0.03807  0.01497  1.0000
  H   H1541     1.0  0.66046  0.99675  0.02300  1.0000
  H   H1542     1.0  0.53567  0.09447  0.08638  1.0000
  C   C866      1.0  0.74272  0.00591  0.28721  1.0000
  H   H1543     1.0  0.98257  0.08297  0.38782  1.0000
  Fe  Fe97      1.0  0.65198  0.99971  0.20899  1.0000
  H   H1544     1.0  0.73013  0.00819  0.21522  1.0000
  S   S194      1.0  0.86640  0.99752  0.29961  1.0000
  Fe  Fe98      1.0  0.62482  0.00945  0.15820  1.0000
  S   S195      1.0  0.61066  0.02513  0.12690  1.0000
  S   S196      1.0  0.61430  0.01271  0.19907  1.0000
  S   S197      1.0  0.67887  0.00252  0.24271  1.0000
  Fe  Fe99      1.0  0.82800  0.00871  0.31164  1.0000
  C   C867      1.0  0.71710  0.00421  0.27853  1.0000
  C   C868      1.0  0.60507  0.08848  0.01437  1.0000
  Fe  Fe100     1.0  0.88908  0.00962  0.32376  1.0000
  H   H1545     1.0  0.94145  0.05065  0.45969  1.0000
  S   S198      1.0  0.92997  0.01824  0.31521  1.0000
  Fe  Fe101     1.0  0.84729  0.00765  0.36692  1.0000
  S   S199      1.0  0.84487  0.00979  0.40948  1.0000
  S   S200      1.0  0.85162  0.02261  0.33267  1.0000
  C   C869      1.0  0.83585  0.04582  0.45778  1.0000
  H   H1546     1.0  0.59911  0.02734  0.24247  1.0000
  C   C870      1.0  0.85083  0.02264  0.45190  1.0000
  C   C871      1.0  0.84204  0.02408  0.42700  1.0000
  C   C872      1.0  0.83019  0.03650  0.41749  1.0000
  C   C873      1.0  0.82690  0.04728  0.43292  1.0000
  H   H1547     1.0  0.57096  0.04237  0.16642  1.0000
  H   H1548     1.0  0.85979  0.01306  0.45951  1.0000
  H   H1549     1.0  0.82295  0.03769  0.39852  1.0000
  H   H1550     1.0  0.81726  0.05676  0.42560  1.0000
  C   C874      1.0  0.71200  0.00495  0.25247  1.0000
  C   C875      1.0  0.76393  0.00869  0.27000  1.0000
  H   H1551     1.0  0.51289  0.01899  0.22589  1.0000
  H   H1552     1.0  0.52915  0.06771  0.27150  1.0000
  C   C876      1.0  0.55417  0.03043  0.21378  1.0000
  C   C877      1.0  0.51788  0.99440  0.20608  1.0000
  C   C878      1.0  0.62399  0.02710  0.09548  1.0000
  C   C879      1.0  0.65128  0.02564  0.09000  1.0000
  C   C880      1.0  0.66133  0.02875  0.06513  1.0000
  C   C881      1.0  0.64422  0.03323  0.04549  1.0000
  C   C882      1.0  0.61687  0.03427  0.05083  1.0000
  C   C883      1.0  0.60686  0.03135  0.07576  1.0000
  H   H1553     1.0  0.66471  0.02260  0.10509  1.0000
  H   H1554     1.0  0.68253  0.02799  0.06120  1.0000
  H   H1555     1.0  0.60350  0.03763  0.03587  1.0000
  H   H1556     1.0  0.58572  0.03254  0.07988  1.0000
  H   H1557     1.0  0.98097  0.02908  0.30566  1.0000
  C   C884      1.0  0.51280  0.00338  0.18473  1.0000
  H   H1558     1.0  0.52920  0.00748  0.17359  1.0000
  H   H1559     1.0  0.50078  0.03481  0.23540  1.0000
  H   H1560     1.0  0.94769  0.02041  0.45466  1.0000
  H   H1561     1.0  0.63106  0.01455  0.00166  1.0000
  H   H1562     1.0  0.62212  0.06279  0.03146  1.0000
  C   C885      1.0  0.96301  0.01099  0.32042  1.0000
  S   S201      1.0  0.79692  0.01140  0.27971  1.0000
  N   N49       1.0  0.92470  0.06034  0.42536  1.0000
  C   C886      1.0  0.90177  0.06696  0.43990  1.0000
  C   C887      1.0  0.93534  0.04790  0.44103  1.0000
  C   C888      1.0  0.94642  0.07001  0.42229  1.0000
  C   C889      1.0  0.91734  0.05706  0.39945  1.0000
  C   C890      1.0  0.88826  0.05357  0.39653  1.0000
  C   C891      1.0  0.89167  0.08118  0.42855  1.0000
  H   H1563     1.0  0.53114  0.06067  0.30391  1.0000
  C   C892      1.0  0.91675  0.03632  0.44589  1.0000
  C   C893      1.0  0.60578  0.01191  0.27251  1.0000
  C   C894      1.0  0.88473  0.04812  0.37109  1.0000
  C   C895      1.0  0.86370  0.08516  0.43858  1.0000
  S   S202      1.0  0.66376  0.99791  0.16769  1.0000
  H   H1564     1.0  0.56349  0.04773  0.24617  1.0000
  H   H1565     1.0  0.88472  0.06056  0.44242  1.0000
  H   H1566     1.0  0.95338  0.04329  0.43179  1.0000
  H   H1567     1.0  0.52642  0.10995  0.06780  1.0000
  N   N50       1.0  0.59249  0.07932  0.03516  1.0000
  H   H1568     1.0  0.93994  0.07918  0.41002  1.0000
  H   H1569     1.0  0.92060  0.06564  0.38498  1.0000
  H   H1570     1.0  0.93074  0.04860  0.39311  1.0000
  H   H1571     1.0  0.87441  0.06264  0.39752  1.0000
  H   H1572     1.0  0.88175  0.04602  0.41153  1.0000
  C   C896      1.0  0.54320  0.04410  0.24906  1.0000
  H   H1573     1.0  0.89156  0.08185  0.40762  1.0000
  C   C897      1.0  0.55696  0.06179  0.04397  1.0000
  C   C898      1.0  0.97339  0.06455  0.41076  1.0000
  H   H1574     1.0  0.58838  0.03208  0.27308  1.0000
  H   H1575     1.0  0.91308  0.03211  0.42793  1.0000
  H   H1576     1.0  0.55704  0.07771  0.01430  1.0000
  C   C899      1.0  0.99151  0.07587  0.40296  1.0000
  H   H1577     1.0  0.95044  0.07357  0.44092  1.0000
  H   H1578     1.0  0.86350  0.04649  0.36907  1.0000
  H   H1579     1.0  0.89107  0.05533  0.35518  1.0000
  H   H1580     1.0  0.89627  0.03833  0.36989  1.0000
  H   H1581     1.0  0.93645  0.02463  0.37345  1.0000
  H   H1582     1.0  0.84936  0.07836  0.43248  1.0000
  C   C900      1.0  0.56024  0.99313  0.10412  1.0000
  C   C901      1.0  0.60776  0.98888  0.08736  1.0000
  H   H1583     1.0  0.90494  0.08871  0.43388  1.0000
  H   H1584     1.0  0.77475  0.01165  0.23028  1.0000
  C   C902      1.0  0.61418  0.06953  0.04603  1.0000
  H   H1585     1.0  0.61333  0.09706  0.02248  1.0000
  H   H1586     1.0  0.55779  0.10798  0.08295  1.0000
  H   H1587     1.0  0.62607  0.01493  0.27518  1.0000
  H   H1588     1.0  0.55719  0.01999  0.20805  1.0000
  H   H1589     1.0  0.55156  0.01798  0.27599  1.0000
  H   H1590     1.0  0.55453  0.02742  0.16219  1.0000
  H   H1591     1.0  0.64424  0.00274  0.98007  1.0000
  H   H1592     1.0  0.95199  0.99154  0.33598  1.0000
  C   C903      1.0  0.96831  0.99774  0.33089  1.0000
  C   C904      1.0  0.55139  0.03799  0.16698  1.0000
  C   C905      1.0  0.75880  0.00949  0.24396  1.0000
  N   N51       1.0  0.54285  0.03018  0.24067  1.0000
  C   C906      1.0  0.53336  0.04579  0.27663  1.0000
  H   H1593     1.0  0.60097  0.99459  0.03644  1.0000
  C   C907      1.0  0.62119  0.99567  0.04274  1.0000
  H   H1594     1.0  0.67602  0.06968  0.07308  1.0000
  H   H1595     1.0  0.57397  0.03458  0.21218  1.0000
  H   H1596     1.0  0.61035  0.00222  0.99196  1.0000
  H   H1597     1.0  0.97330  0.03152  0.39798  1.0000
  S   S203      1.0  0.82145  0.99486  0.34690  1.0000
  C   C908      1.0  0.57854  0.99280  0.08045  1.0000
  H   H1598     1.0  0.54311  0.03812  0.29024  1.0000
  H   H1599     1.0  0.98397  0.02553  0.36793  1.0000
  H   H1600     1.0  0.60759  0.00354  0.26007  1.0000
  H   H1601     1.0  0.53044  0.05138  0.23707  1.0000
  C   C909      1.0  0.53734  0.05419  0.03080  1.0000
  C   C910      1.0  0.51473  0.02595  0.24070  1.0000
  H   H1602     1.0  0.56065  0.06075  0.28363  1.0000
  H   H1603     1.0  0.74590  0.00536  0.30727  1.0000
  H   H1604     1.0  0.59543  0.09351  0.06296  1.0000
  C   C911      1.0  0.56017  0.02004  0.25662  1.0000
  H   H1605     1.0  0.62088  0.00626  0.04757  1.0000
  C   C912      1.0  0.65961  0.06501  0.06485  1.0000
  C   C913      1.0  0.63814  0.07584  0.05638  1.0000
  H   H1606     1.0  0.62244  0.08307  0.00517  1.0000
  S   S204      1.0  0.88490  0.99517  0.35807  1.0000
  H   H1607     1.0  0.95077  0.00767  0.37609  1.0000
  C   C914      1.0  0.99477  0.99252  0.33470  1.0000
  C   C915      1.0  0.58882  0.02387  0.26040  1.0000
  H   H1608     1.0  0.54538  0.06766  0.05793  1.0000
  C   C916      1.0  0.97632  0.02253  0.38741  1.0000
  C   C917      1.0  0.54334  0.10268  0.07317  1.0000
  S   S205      1.0  0.55068  0.98997  0.21689  1.0000
  H   H1609     1.0  0.57040  0.05419  0.05427  1.0000
  H   H1610     1.0  0.85760  0.09559  0.43107  1.0000
  H   H1611     1.0  0.93914  0.01540  0.40420  1.0000
  C   C918      1.0  0.57242  0.07117  0.02456  1.0000
  H   H1612     1.0  0.65145  0.05757  0.07944  1.0000
  C   C919      1.0  0.73332  0.00753  0.23528  1.0000
  H   H1613     1.0  0.56591  0.00090  0.11603  1.0000
  C   C920      1.0  0.98467  0.01887  0.31399  1.0000
  H   H1614     1.0  0.51767  0.03481  0.19206  1.0000
  C   C921      1.0  0.94907  0.01721  0.38525  1.0000
  C   C922      1.0  0.53896  0.05959  0.28428  1.0000
  C   C923      1.0  0.64010  0.99431  0.01918  1.0000
  H   H1615     1.0  0.53479  0.04944  0.19660  1.0000
  Fe  Fe102     1.0  0.59251  0.99385  0.19960  1.0000
  H   H1616     1.0  0.56134  0.01016  0.24850  1.0000
  H   H1617     1.0  0.65528  0.00028  0.07513  1.0000
  H   H1618     1.0  0.89765  0.03980  0.45475  1.0000
  H   H1619     1.0  0.54083  0.09217  0.04029  1.0000
  H   H1620     1.0  0.83136  0.98719  0.25738  1.0000
  H   H1621     1.0  0.52678  0.04743  0.04497  1.0000
  H   H1622     1.0  0.57507  0.08033  0.07293  1.0000
  H   H1623     1.0  0.54786  0.04799  0.01669  1.0000
  H   H1624     1.0  0.68937  0.99753  0.10808  1.0000
  C   C924      1.0  0.84800  0.03346  0.46710  1.0000
  H   H1625     1.0  0.56271  0.10573  0.03674  1.0000
  H   H1626     1.0  0.61352  0.99740  0.09755  1.0000
  H   H1627     1.0  0.56849  0.09920  0.99858  1.0000
  C   C925      1.0  0.50353  0.01830  0.26516  1.0000
  H   H1628     1.0  0.70105  0.00227  0.29221  1.0000
  H   H1629     1.0  0.52239  0.06131  0.02104  1.0000
  C   C926      1.0  0.58053  0.08724  0.05614  1.0000
  H   H1630     1.0  0.90746  0.06810  0.45954  1.0000
  C   C927      1.0  0.58760  0.09434  0.99207  1.0000
  H   H1631     1.0  0.63189  0.08129  0.07310  1.0000
  H   H1632     1.0  0.53904  0.04373  0.15233  1.0000
  H   H1633     1.0  0.58231  0.06490  0.01012  1.0000
  C   C928      1.0  0.55627  0.09706  0.04946  1.0000
  H   H1634     1.0  0.66789  0.05973  0.04848  1.0000
  H   H1635     1.0  0.59703  0.00829  0.29123  1.0000
  H   H1636     1.0  0.98510  0.00642  0.41683  1.0000
  C   C929      1.0  0.63078  0.00403  0.99691  1.0000
  H   H1637     1.0  0.51273  0.00783  0.26694  1.0000
  H   H1638     1.0  0.53946  0.99572  0.09857  1.0000
  H   H1639     1.0  0.60597  0.11342  0.98473  1.0000
  H   H1640     1.0  0.97062  0.05916  0.39389  1.0000
  C   C930      1.0  0.92910  0.02479  0.46345  1.0000
  H   H1641     1.0  0.51157  0.04506  0.27840  1.0000
  H   H1642     1.0  0.57694  0.00305  0.07035  1.0000
  S   S206      1.0  0.60174  0.99120  0.15880  1.0000
  C   C931      1.0  0.65462  0.98929  0.07397  1.0000
  H   H1643     1.0  0.98399  0.05761  0.42507  1.0000
  H   H1644     1.0  0.91495  0.01681  0.46702  1.0000
  H   H1645     1.0  0.76014  0.98804  0.35398  1.0000
  H   H1646     1.0  0.86298  0.08464  0.45956  1.0000
  C   C932      1.0  0.99572  0.01157  0.40024  1.0000
  S   S207      1.0  0.83106  0.05946  0.47691  1.0000
  S   S208      1.0  0.59217  0.03682  0.97957  1.0000
  H   H1647     1.0  0.58313  0.08622  0.98050  1.0000
  Fe  Fe103     1.0  0.63289  0.04388  0.98057  1.0000
  H   H1648     1.0  0.99504  0.08143  0.41947  1.0000
  C   C933      1.0  0.72642  0.21861  0.79266  1.0000
  C   C934      1.0  0.55921  0.19934  0.84473  1.0000
  Fe  Fe104     1.0  0.60480  0.03093  0.94089  1.0000
  H   H1649     1.0  0.64932  0.19663  0.71343  1.0000
  S   S209      1.0  0.59171  0.01077  0.93251  1.0000
  Fe  Fe105     1.0  0.63103  0.05748  0.92600  1.0000
  S   S210      1.0  0.64932  0.06982  0.89221  1.0000
  S   S211      1.0  0.59061  0.05065  0.92088  1.0000
  Fe  Fe106     1.0  0.91322  0.06845  0.51534  1.0000
  S   S212      1.0  0.87393  0.08015  0.51743  1.0000
  S   S213      1.0  0.94909  0.07695  0.49557  1.0000
  Fe  Fe107     1.0  0.89378  0.04377  0.54665  1.0000
  S   S214      1.0  0.85255  0.05352  0.55123  1.0000
  S   S215      1.0  0.91048  0.02276  0.55914  1.0000
  Fe  Fe108     1.0  0.85784  0.06054  0.50971  1.0000
  Fe  Fe109     1.0  0.87279  0.07220  0.55855  1.0000
  S   S216      1.0  0.86632  0.08332  0.59440  1.0000
  S   S217      1.0  0.89751  0.04963  0.50507  1.0000
  S   S218      1.0  0.91354  0.06166  0.55654  1.0000
  Fe  Fe110     1.0  0.87022  0.17899  0.68083  1.0000
  S   S219      1.0  0.88001  0.16630  0.71680  1.0000
  S   S220      1.0  0.86078  0.20038  0.69137  1.0000
  Fe  Fe111     1.0  0.87135  0.15375  0.65177  1.0000
  S   S221      1.0  0.88048  0.13992  0.68635  1.0000
  S   S222      1.0  0.86692  0.14533  0.61376  1.0000
  Fe  Fe112     1.0  0.84938  0.15295  0.70634  1.0000
  S   S223      1.0  0.81969  0.14472  0.73674  1.0000
  Fe  Fe113     1.0  0.91005  0.15482  0.69322  1.0000
  S   S224      1.0  0.95119  0.14725  0.70694  1.0000
  S   S225      1.0  0.83832  0.16599  0.67131  1.0000
  S   S226      1.0  0.90236  0.16825  0.65770  1.0000
  Fe  Fe114     1.0  0.62363  0.17375  0.80419  1.0000
  S   S227      1.0  0.62388  0.16509  0.76688  1.0000
  S   S228      1.0  0.61309  0.19628  0.79877  1.0000
  Fe  Fe115     1.0  0.63481  0.14558  0.83141  1.0000
  S   S229      1.0  0.63685  0.13562  0.79515  1.0000
  S   S230      1.0  0.63496  0.13378  0.87038  1.0000
  Fe  Fe116     1.0  0.66092  0.15284  0.77924  1.0000
  S   S231      1.0  0.69344  0.15414  0.74753  1.0000
  Fe  Fe117     1.0  0.59992  0.14902  0.78639  1.0000
  S   S232      1.0  0.56566  0.14072  0.76784  1.0000
  S   S233      1.0  0.66131  0.16208  0.81627  1.0000
  S   S234      1.0  0.59699  0.15841  0.82294  1.0000
  C   C935      1.0  0.78492  0.14883  0.74045  1.0000
  C   C936      1.0  0.77019  0.15574  0.72103  1.0000
  C   C937      1.0  0.74230  0.15749  0.72379  1.0000
  C   C938      1.0  0.72877  0.15270  0.74621  1.0000
  C   C939      1.0  0.74361  0.14641  0.76612  1.0000
  C   C940      1.0  0.77146  0.14435  0.76311  1.0000
  H   H1650     1.0  0.78021  0.15938  0.70359  1.0000
  H   H1651     1.0  0.73105  0.16241  0.70828  1.0000
  H   H1652     1.0  0.73357  0.14264  0.78346  1.0000
  H   H1653     1.0  0.78262  0.13902  0.77829  1.0000
  C   C941      1.0  0.86848  0.10060  0.59860  1.0000
  C   C942      1.0  0.86227  0.11082  0.57955  1.0000
  C   C943      1.0  0.86221  0.12443  0.58441  1.0000
  C   C944      1.0  0.86832  0.12802  0.60832  1.0000
  C   C945      1.0  0.87523  0.11780  0.62715  1.0000
  C   C946      1.0  0.87515  0.10419  0.62236  1.0000
  H   H1654     1.0  0.85684  0.10824  0.56126  1.0000
  H   H1655     1.0  0.85693  0.13223  0.56964  1.0000
  H   H1656     1.0  0.88040  0.12039  0.64548  1.0000
  H   H1657     1.0  0.87990  0.09638  0.63728  1.0000
  C   C947      1.0  0.64490  0.08761  0.88657  1.0000
  C   C948      1.0  0.65549  0.09394  0.86398  1.0000
  C   C949      1.0  0.65236  0.10802  0.85868  1.0000
  C   C950      1.0  0.63870  0.11597  0.87598  1.0000
  C   C951      1.0  0.62824  0.10965  0.89867  1.0000
  C   C952      1.0  0.63115  0.09555  0.90388  1.0000
  H   H1658     1.0  0.66642  0.08793  0.85061  1.0000
  H   H1659     1.0  0.66104  0.11276  0.84147  1.0000
  H   H1660     1.0  0.61786  0.11571  0.91230  1.0000
  H   H1661     1.0  0.62300  0.09084  0.92138  1.0000
  C   C953      1.0  0.86305  0.99819  0.61974  1.0000
  C   C954      1.0  0.94413  0.20849  0.67744  1.0000
  C   C955      1.0  0.90096  0.00021  0.59029  1.0000
  C   C956      1.0  0.89236  0.01358  0.58293  1.0000
  C   C957      1.0  0.86916  0.01926  0.59409  1.0000
  C   C958      1.0  0.85457  0.01158  0.61249  1.0000
  H   H1662     1.0  0.63956  0.19346  0.74633  1.0000
  H   H1663     1.0  0.51080  0.23034  0.81181  1.0000
  H   H1664     1.0  0.86245  0.02957  0.58858  1.0000
  H   H1665     1.0  0.83664  0.01603  0.62110  1.0000
  C   C959      1.0  0.94875  0.20213  0.65246  1.0000
  C   C960      1.0  0.63420  0.00585  0.86723  1.0000
  C   C961      1.0  0.62247  0.01156  0.88853  1.0000
  C   C962      1.0  0.60598  0.00411  0.90531  1.0000
  H   H1666     1.0  0.91136  0.11532  0.55306  1.0000
  H   H1667     1.0  0.94346  0.08898  0.62404  1.0000
  H   H1668     1.0  0.89168  0.11338  0.51229  1.0000
  H   H1669     1.0  0.62644  0.02166  0.89209  1.0000
  C   C963      1.0  0.92143  0.21481  0.72701  1.0000
  C   C964      1.0  0.50434  0.03933  0.94145  1.0000
  H   H1670     1.0  0.73293  0.99730  0.70193  1.0000
  C   C965      1.0  0.74380  0.99040  0.71620  1.0000
  C   C966      1.0  0.91735  0.22059  0.75310  1.0000
  H   H1671     1.0  0.53159  0.00705  0.92662  1.0000
  C   C967      1.0  0.53048  0.14069  0.77106  1.0000
  C   C968      1.0  0.51821  0.13331  0.75445  1.0000
  H   H1672     1.0  0.95087  0.21013  0.63671  1.0000
  C   C969      1.0  0.52403  0.04660  0.95011  1.0000
  H   H1673     1.0  0.95916  0.11241  0.53626  1.0000
  H   H1674     1.0  0.97096  0.11956  0.67910  1.0000
  H   H1675     1.0  0.70931  0.17103  0.84201  1.0000
  C   C970      1.0  0.65579  0.19173  0.73196  1.0000
  H   H1676     1.0  0.65948  0.18078  0.73026  1.0000
  C   C971      1.0  0.97608  0.06667  0.50714  1.0000
  C   C972      1.0  0.97295  0.05311  0.51447  1.0000
  H   H1677     1.0  0.57833  0.08482  0.90207  1.0000
  H   H1678     1.0  0.92330  0.12059  0.50768  1.0000
  H   H1679     1.0  0.76913  0.19353  0.78479  1.0000
  C   C973      1.0  0.56188  0.08171  0.89132  1.0000
  C   C974      1.0  0.63154  0.20920  0.80789  1.0000
  C   C975      1.0  0.64928  0.20708  0.82752  1.0000
  C   C976      1.0  0.66133  0.21805  0.83576  1.0000
  H   H1680     1.0  0.73834  0.18144  0.75428  1.0000
  H   H1681     1.0  0.65299  0.19711  0.83693  1.0000
  H   H1682     1.0  0.67455  0.21642  0.85136  1.0000
  H   H1683     1.0  0.82463  0.01945  0.51508  1.0000
  C   C977      1.0  0.68103  0.19761  0.73916  1.0000
  C   C978      1.0  0.86854  0.21614  0.67624  1.0000
  C   C979      1.0  0.86417  0.22738  0.69011  1.0000
  N   N52       1.0  0.52464  0.00929  0.87101  1.0000
  C   C980      1.0  0.69041  0.19114  0.76531  1.0000
  H   H1684     1.0  0.85629  0.22613  0.70937  1.0000
  C   C981      1.0  0.72858  0.16914  0.83163  1.0000
  H   H1685     1.0  0.71245  0.16885  0.79514  1.0000
  H   H1686     1.0  0.74425  0.17392  0.84080  1.0000
  H   H1687     1.0  0.73362  0.15812  0.83291  1.0000
  H   H1688     1.0  0.71447  0.21621  0.75478  1.0000
  C   C982      1.0  0.96777  0.20591  0.73199  1.0000
  C   C983      1.0  0.70462  0.99901  0.87703  1.0000
  C   C984      1.0  0.49772  0.18336  0.75997  1.0000
  H   H1689     1.0  0.85494  0.03219  0.48616  1.0000
  H   H1690     1.0  0.96206  0.03634  0.57312  1.0000
  C   C985      1.0  0.83159  0.01604  0.53430  1.0000
  H   H1691     1.0  0.75928  0.23426  0.67805  1.0000
  C   C986      1.0  0.91909  0.10696  0.54196  1.0000
  H   H1692     1.0  0.95435  0.04888  0.51202  1.0000
  C   C987      1.0  0.53037  0.03488  0.86259  1.0000
  H   H1693     1.0  0.97972  0.00287  0.63058  1.0000
  H   H1694     1.0  0.53798  0.08882  0.85997  1.0000
  N   N53       1.0  0.71523  0.19629  0.77459  1.0000
  H   H1695     1.0  0.69622  0.19572  0.72397  1.0000
  C   C988      1.0  0.60087  0.99106  0.90053  1.0000
  H   H1696     1.0  0.97495  0.10497  0.70159  1.0000
  H   H1697     1.0  0.51382  0.03574  0.84946  1.0000
  N   N54       1.0  0.95762  0.10039  0.57255  1.0000
  N   N55       1.0  0.79401  0.11769  0.68055  1.0000
  C   C989      1.0  0.82319  0.11694  0.68577  1.0000
  C   C990      1.0  0.78567  0.13120  0.66698  1.0000
  C   C991      1.0  0.77897  0.11645  0.70587  1.0000
  C   C992      1.0  0.78703  0.10633  0.66595  1.0000
  C   C993      1.0  0.80124  0.10521  0.63976  1.0000
  C   C994      1.0  0.83466  0.10366  0.69991  1.0000
  C   C995      1.0  0.74858  0.12021  0.70554  1.0000
  C   C996      1.0  0.80557  0.13753  0.64704  1.0000
  C   C997      1.0  0.79273  0.14999  0.63228  1.0000
  C   C998      1.0  0.79736  0.09174  0.62967  1.0000
  C   C999      1.0  0.86407  0.10430  0.70463  1.0000
  C   C1000     1.0  0.73520  0.11657  0.73139  1.0000
  H   H1698     1.0  0.82730  0.12536  0.69698  1.0000
  H   H1699     1.0  0.83550  0.11846  0.66812  1.0000
  H   H1700     1.0  0.76643  0.13074  0.65783  1.0000
  H   H1701     1.0  0.78212  0.13885  0.68089  1.0000
  H   H1702     1.0  0.78712  0.12295  0.71913  1.0000
  H   H1703     1.0  0.78160  0.10602  0.71502  1.0000
  H   H1704     1.0  0.79041  0.09653  0.67748  1.0000
  H   H1705     1.0  0.76551  0.10714  0.66235  1.0000
  H   H1706     1.0  0.82282  0.10603  0.64043  1.0000
  H   H1707     1.0  0.79273  0.11317  0.62589  1.0000
  H   H1708     1.0  0.82444  0.10166  0.71863  1.0000
  H   H1709     1.0  0.83282  0.09506  0.68857  1.0000
  H   H1710     1.0  0.73888  0.11493  0.69150  1.0000
  H   H1711     1.0  0.74448  0.13118  0.70091  1.0000
  H   H1712     1.0  0.82273  0.14070  0.65666  1.0000
  H   H1713     1.0  0.81351  0.13054  0.63326  1.0000
  H   H1714     1.0  0.77615  0.14725  0.62127  1.0000
  H   H1715     1.0  0.78519  0.15756  0.64533  1.0000
  H   H1716     1.0  0.80768  0.15458  0.61885  1.0000
  H   H1717     1.0  0.80693  0.09150  0.61045  1.0000
  H   H1718     1.0  0.80678  0.08333  0.64206  1.0000
  H   H1719     1.0  0.77595  0.09030  0.62838  1.0000
  H   H1720     1.0  0.55736  0.18497  0.79010  1.0000
  H   H1721     1.0  0.86694  0.11253  0.71663  1.0000
  H   H1722     1.0  0.87185  0.09467  0.71462  1.0000
  H   H1723     1.0  0.74493  0.12114  0.74643  1.0000
  H   H1724     1.0  0.71403  0.12044  0.73135  1.0000
  H   H1725     1.0  0.73618  0.10550  0.73587  1.0000
  H   H1726     1.0  0.71848  0.21640  0.81236  1.0000
  C   C1001     1.0  0.99283  0.02174  0.58764  1.0000
  H   H1727     1.0  0.97362  0.08058  0.61220  1.0000
  C   C1002     1.0  0.94625  0.17796  0.74702  1.0000
  H   H1728     1.0  0.89243  0.23204  0.62124  1.0000
  H   H1729     1.0  0.99534  0.22959  0.69342  1.0000
  H   H1730     1.0  0.52871  0.99139  0.83180  1.0000
  H   H1731     1.0  0.83240  0.23538  0.75347  1.0000
  H   H1732     1.0  0.81438  0.01315  0.54671  1.0000
  H   H1733     1.0  0.73444  0.19451  0.81079  1.0000
  C   C1003     1.0  0.56930  0.99208  0.81923  1.0000
  H   H1734     1.0  0.99460  0.09912  0.59211  1.0000
  H   H1735     1.0  0.95136  0.14595  0.59141  1.0000
  H   H1736     1.0  0.74705  0.99678  0.73167  1.0000
  H   H1737     1.0  0.54944  0.03441  0.85137  1.0000
  H   H1738     1.0  0.88195  0.20926  0.64036  1.0000
  C   C1004     1.0  0.52912  0.02229  0.88180  1.0000
  C   C1005     1.0  0.77191  0.23449  0.69459  1.0000
  H   H1739     1.0  0.68894  0.99313  0.72636  1.0000
  H   H1740     1.0  0.90927  0.19005  0.74139  1.0000
  C   C1006     1.0  0.95732  0.12554  0.58060  1.0000
  H   H1741     1.0  0.52379  0.15290  0.80236  1.0000
  C   C1007     1.0  0.88633  0.99252  0.60865  1.0000
  H   H1742     1.0  0.78576  0.23280  0.74339  1.0000
  C   C1008     1.0  0.54673  0.00677  0.85151  1.0000
  H   H1743     1.0  0.80183  0.99241  0.68041  1.0000
  H   H1744     1.0  0.76951  0.20704  0.70252  1.0000
  H   H1745     1.0  0.61348  0.22386  0.78049  1.0000
  H   H1746     1.0  0.93653  0.22125  0.76203  1.0000
  C   C1009     1.0  0.51803  0.05976  0.95630  1.0000
  H   H1747     1.0  0.75912  0.23124  0.71131  1.0000
  H   H1748     1.0  0.93162  0.19637  0.64882  1.0000
  C   C1010     1.0  0.72353  0.23387  0.78659  1.0000
  H   H1749     1.0  0.97902  0.12569  0.58241  1.0000
  H   H1750     1.0  0.78731  0.17629  0.75809  1.0000
  H   H1751     1.0  0.54626  0.17113  0.77520  1.0000
  H   H1752     1.0  0.91828  0.06959  0.61598  1.0000
  C   C1011     1.0  0.98744  0.09739  0.57327  1.0000
  C   C1012     1.0  0.78776  0.18704  0.75080  1.0000
  H   H1753     1.0  0.90775  0.09805  0.54763  1.0000
  H   H1754     1.0  0.77078  0.00124  0.67545  1.0000
  H   H1755     1.0  0.64726  0.01158  0.85444  1.0000
  C   C1013     1.0  0.79487  0.22348  0.69183  1.0000
  H   H1756     1.0  0.92639  0.11199  0.59181  1.0000
  S   S235      1.0  0.54314  0.06894  0.96621  1.0000
  H   H1757     1.0  0.56483  0.99969  0.80312  1.0000
  H   H1758     1.0  0.80284  0.00383  0.72264  1.0000
  H   H1759     1.0  0.78519  0.18790  0.73008  1.0000
  H   H1760     1.0  0.96644  0.16992  0.67159  1.0000
  H   H1761     1.0  0.96711  0.19533  0.65285  1.0000
  H   H1762     1.0  0.67235  0.99767  0.90417  1.0000
  C   C1014     1.0  0.53289  0.09615  0.76950  1.0000
  H   H1763     1.0  0.56639  0.00758  0.85975  1.0000
  H   H1764     1.0  0.58090  0.19985  0.84648  1.0000
  C   C1015     1.0  0.98429  0.11415  0.69335  1.0000
  H   H1765     1.0  0.96639  0.17893  0.75364  1.0000
  H   H1766     1.0  0.82641  0.99574  0.50878  1.0000
  H   H1767     1.0  0.51299  0.09864  0.77827  1.0000
  H   H1768     1.0  0.87562  0.10598  0.68647  1.0000
  C   C1016     1.0  0.85296  0.00443  0.53325  1.0000
  H   H1769     1.0  0.73543  0.19746  0.73766  1.0000
  C   C1017     1.0  0.71889  0.18991  0.80125  1.0000
  H   H1770     1.0  0.90473  0.21415  0.76600  1.0000
  H   H1771     1.0  0.55610  0.19041  0.83466  1.0000
  H   H1772     1.0  0.99423  0.20123  0.69934  1.0000
  C   C1018     1.0  0.99384  0.04496  0.52526  1.0000
  C   C1019     1.0  0.94921  0.10368  0.54561  1.0000
  H   H1773     1.0  0.54444  0.08037  0.90457  1.0000
  H   H1774     1.0  0.92825  0.22314  0.71350  1.0000
  C   C1020     1.0  0.71067  0.21142  0.77425  1.0000
  C   C1021     1.0  0.52883  0.04771  0.87619  1.0000
  H   H1775     1.0  0.95001  0.07970  0.57004  1.0000
  H   H1776     1.0  0.98632  0.12069  0.70878  1.0000
  H   H1777     1.0  0.70043  0.19181  0.81305  1.0000
  S   S236      1.0  0.64653  0.03684  0.94267  1.0000
  H   H1778     1.0  0.94839  0.13320  0.61749  1.0000
  C   C1022     1.0  0.99232  0.99345  0.62904  1.0000
  N   N56       1.0  0.57336  0.10346  0.82712  1.0000
  C   C1023     1.0  0.59935  0.10661  0.81377  1.0000
  C   C1024     1.0  0.55831  0.11646  0.83295  1.0000
  C   C1025     1.0  0.57892  0.09448  0.85101  1.0000
  C   C1026     1.0  0.55662  0.09627  0.81071  1.0000
  C   C1027     1.0  0.61698  0.09431  0.80547  1.0000
  C   C1028     1.0  0.55477  0.09229  0.86963  1.0000
  C   C1029     1.0  0.57164  0.12487  0.85114  1.0000
  C   C1030     1.0  0.55280  0.13651  0.85900  1.0000
  C   C1031     1.0  0.64112  0.09874  0.78940  1.0000
  H   H1779     1.0  0.61162  0.11167  0.82623  1.0000
  H   H1780     1.0  0.59603  0.11404  0.79704  1.0000
  H   H1781     1.0  0.55530  0.12322  0.81538  1.0000
  H   H1782     1.0  0.53794  0.11461  0.84062  1.0000
  H   H1783     1.0  0.59479  0.09832  0.86156  1.0000
  H   H1784     1.0  0.58719  0.08436  0.84632  1.0000
  H   H1785     1.0  0.56408  0.08556  0.81014  1.0000
  H   H1786     1.0  0.53617  0.09593  0.81905  1.0000
  H   H1787     1.0  0.62436  0.08794  0.82228  1.0000
  H   H1788     1.0  0.60603  0.08798  0.79419  1.0000
  H   H1789     1.0  0.54796  0.10172  0.87807  1.0000
  H   H1790     1.0  0.57797  0.11883  0.86865  1.0000
  H   H1791     1.0  0.58932  0.12923  0.84151  1.0000
  H   H1792     1.0  0.56328  0.14262  0.87122  1.0000
  H   H1793     1.0  0.54621  0.14308  0.84210  1.0000
  H   H1794     1.0  0.53523  0.13269  0.86983  1.0000
  H   H1795     1.0  0.65356  0.10460  0.80032  1.0000
  H   H1796     1.0  0.65338  0.08977  0.78376  1.0000
  H   H1797     1.0  0.63484  0.10499  0.77201  1.0000
  H   H1798     1.0  0.88378  0.23455  0.74188  1.0000
  C   C1032     1.0  0.65565  0.23118  0.82453  1.0000
  Fe  Fe118     1.0  0.58169  0.05707  0.95965  1.0000
  H   H1799     1.0  0.54879  0.11335  0.78209  1.0000
  C   C1033     1.0  0.72685  0.17458  0.80386  1.0000
  H   H1800     1.0  0.56796  0.07191  0.88388  1.0000
  C   C1034     1.0  0.55418  0.10246  0.78294  1.0000
  H   H1801     1.0  0.57320  0.10095  0.77200  1.0000
  H   H1802     1.0  0.68942  0.21429  0.77918  1.0000
  H   H1803     1.0  0.92220  0.13668  0.59525  1.0000
  H   H1804     1.0  0.74660  0.17238  0.79460  1.0000
  H   H1805     1.0  0.67351  0.19257  0.77927  1.0000
  H   H1806     1.0  0.69303  0.18017  0.76376  1.0000
  H   H1807     1.0  0.80643  0.22182  0.70923  1.0000
  H   H1808     1.0  0.70433  0.01005  0.87789  1.0000
  S   S237      1.0  0.84419  0.98884  0.64273  1.0000
  H   H1809     1.0  0.67657  0.20860  0.73930  1.0000
  C   C1035     1.0  0.94841  0.11135  0.58919  1.0000
  C   C1036     1.0  0.97702  0.03534  0.58797  1.0000
  C   C1037     1.0  0.73811  0.19235  0.75693  1.0000
  C   C1038     1.0  0.62952  0.99270  0.86269  1.0000
  H   H1810     1.0  0.82321  0.99201  0.56875  1.0000
  H   H1811     1.0  0.96135  0.21425  0.68046  1.0000
  C   C1039     1.0  0.79091  0.00775  0.70623  1.0000
  C   C1040     1.0  0.62681  0.22220  0.79599  1.0000
  H   H1812     1.0  0.54540  0.01460  0.83522  1.0000
  H   H1813     1.0  0.53010  0.12830  0.74021  1.0000
  H   H1814     1.0  0.53226  0.05648  0.86240  1.0000
  S   S238      1.0  0.62133  0.06499  0.96404  1.0000
  H   H1815     1.0  0.77457  0.21091  0.66876  1.0000
  H   H1816     1.0  0.92282  0.08940  0.58328  1.0000
  H   H1817     1.0  0.57381  0.22409  0.84634  1.0000
  H   H1818     1.0  0.55267  0.18667  0.75661  1.0000
  C   C1041     1.0  0.94401  0.13592  0.59728  1.0000
  H   H1819     1.0  0.95326  0.18895  0.69741  1.0000
  C   C1042     1.0  0.93325  0.16791  0.76626  1.0000
  H   H1820     1.0  0.54807  0.02121  0.89203  1.0000
  H   H1821     1.0  0.99126  0.03447  0.53076  1.0000
  H   H1822     1.0  0.92658  0.21576  0.67534  1.0000
  H   H1823     1.0  0.91928  0.19404  0.69729  1.0000
  C   C1043     1.0  0.98155  0.15491  0.69992  1.0000
  H   H1824     1.0  0.93282  0.17137  0.78552  1.0000
  C   C1044     1.0  0.51728  0.00074  0.91896  1.0000
  C   C1045     1.0  0.87868  0.21784  0.65131  1.0000
  C   C1046     1.0  0.93022  0.19176  0.74517  1.0000
  C   C1047     1.0  0.91340  0.11130  0.51428  1.0000
  H   H1825     1.0  0.80756  0.19040  0.75433  1.0000
  H   H1826     1.0  0.94480  0.15801  0.76653  1.0000
  H   H1827     1.0  0.92991  0.19511  0.76452  1.0000
  H   H1828     1.0  0.80859  0.22624  0.67564  1.0000
  H   H1829     1.0  0.76904  0.20628  0.75853  1.0000
  H   H1830     1.0  0.50898  0.04936  0.88569  1.0000
  C   C1048     1.0  0.76607  0.19553  0.76426  1.0000
  H   H1831     1.0  0.72551  0.99500  0.87422  1.0000
  C   C1049     1.0  0.93914  0.19774  0.69984  1.0000
  H   H1832     1.0  0.54221  0.22363  0.86254  1.0000
  C   C1050     1.0  0.52630  0.99773  0.89159  1.0000
  H   H1833     1.0  0.87024  0.00842  0.52205  1.0000
  C   C1051     1.0  0.94479  0.08777  0.58283  1.0000
  C   C1052     1.0  0.63864  0.23316  0.80434  1.0000
  H   H1834     1.0  0.95571  0.09515  0.53422  1.0000
  H   H1835     1.0  0.58894  0.99367  0.82640  1.0000
  H   H1836     1.0  0.91892  0.99579  0.58171  1.0000
  H   H1837     1.0  0.54416  0.04704  0.89062  1.0000
  H   H1838     1.0  0.96636  0.03618  0.60655  1.0000
  C   C1053     1.0  0.84373  0.99228  0.52058  1.0000
  H   H1839     1.0  0.84009  0.02463  0.54200  1.0000
  H   H1840     1.0  0.91272  0.16650  0.76113  1.0000
  H   H1841     1.0  0.51344  0.02466  0.89622  1.0000
  C   C1054     1.0  0.54473  0.18224  0.77512  1.0000
  C   C1055     1.0  0.78414  0.21011  0.68728  1.0000
  N   N57       1.0  0.94034  0.20244  0.72590  1.0000
  H   H1842     1.0  0.90150  0.21272  0.72094  1.0000
  H   H1843     1.0  0.94766  0.17358  0.72862  1.0000
  H   H1844     1.0  0.74780  0.21541  0.79202  1.0000
  H   H1845     1.0  0.70458  0.99456  0.91732  1.0000
  H   H1846     1.0  0.51603  0.19863  0.77984  1.0000
  H   H1847     1.0  0.50903  0.02907  0.93739  1.0000
  C   C1056     1.0  0.94023  0.06855  0.61709  1.0000
  H   H1848     1.0  0.99284  0.08654  0.57102  1.0000
  H   H1849     1.0  0.94846  0.06108  0.60415  1.0000
  H   H1850     1.0  0.95209  0.12881  0.56085  1.0000
  H   H1851     1.0  0.49788  0.17227  0.76358  1.0000
  H   H1852     1.0  0.94520  0.06475  0.63673  1.0000
  H   H1853     1.0  0.93346  0.02831  0.48192  1.0000
  C   C1057     1.0  0.99189  0.19797  0.71979  1.0000
  H   H1854     1.0  0.85998  0.00144  0.55251  1.0000
  H   H1855     1.0  0.50959  0.18326  0.79908  1.0000
  H   H1856     1.0  0.95574  0.10888  0.60859  1.0000
  H   H1857     1.0  0.55653  0.21263  0.81056  1.0000
  H   H1858     1.0  0.97830  0.01395  0.59037  1.0000
  H   H1859     1.0  0.97053  0.21671  0.72621  1.0000
  H   H1860     1.0  0.80074  0.20220  0.68698  1.0000
  C   C1058     1.0  0.54730  0.21205  0.82997  1.0000
  H   H1861     1.0  0.96998  0.20482  0.75286  1.0000
  H   H1862     1.0  0.92033  0.10322  0.50213  1.0000
  H   H1863     1.0  0.54380  0.04193  0.95214  1.0000
  C   C1059     1.0  0.51461  0.14717  0.78936  1.0000
  C   C1060     1.0  0.55209  0.22472  0.84333  1.0000
  C   C1061     1.0  0.98363  0.16596  0.68197  1.0000
  C   C1062     1.0  0.54773  0.99298  0.84021  1.0000
  H   H1864     1.0  0.50761  0.18532  0.74092  1.0000
  H   H1865     1.0  0.69319  0.99708  0.86055  1.0000
  H   H1866     1.0  0.57959  0.23481  0.80711  1.0000
  C   C1063     1.0  0.78362  0.99635  0.69062  1.0000
  H   H1867     1.0  0.51315  0.07466  0.83365  1.0000
  H   H1868     1.0  0.54965  0.19800  0.86395  1.0000
  H   H1869     1.0  0.52581  0.21080  0.82886  1.0000
  H   H1870     1.0  0.53279  0.10030  0.74936  1.0000
  H   H1871     1.0  0.99033  0.04367  0.58409  1.0000
  H   H1872     1.0  0.77266  0.01326  0.71337  1.0000
  H   H1873     1.0  0.82599  0.01277  0.68286  1.0000
  H   H1874     1.0  0.58938  0.10829  0.95831  1.0000
  H   H1875     1.0  0.79575  0.02237  0.67347  1.0000
  H   H1876     1.0  0.53690  0.08508  0.77023  1.0000
  C   C1064     1.0  0.95188  0.08209  0.61010  1.0000
  H   H1877     1.0  0.51073  0.99034  0.95611  1.0000
  H   H1878     1.0  0.51538  0.98922  0.88638  1.0000
  C   C1065     1.0  0.80713  0.01781  0.68991  1.0000
  H   H1879     1.0  0.85962  0.98973  0.50646  1.0000
  H   H1880     1.0  0.81201  0.02595  0.70131  1.0000
  H   H1881     1.0  0.98993  0.18701  0.72146  1.0000
  H   H1882     1.0  0.55047  0.23472  0.79014  1.0000
  H   H1883     1.0  0.54720  0.99358  0.89344  1.0000
  H   H1884     1.0  0.70540  0.99145  0.75622  1.0000
  C   C1066     1.0  0.69231  0.99252  0.90156  1.0000
  H   H1885     1.0  0.79882  0.99001  0.54654  1.0000
  H   H1886     1.0  0.49977  0.01614  0.83949  1.0000
  C   C1067     1.0  0.51657  0.98782  0.93662  1.0000
  C   C1068     1.0  0.51598  0.18759  0.77997  1.0000
  H   H1887     1.0  0.62097  0.10007  0.96688  1.0000
  C   C1069     1.0  0.60195  0.10467  0.97452  1.0000
  C   C1070     1.0  0.49855  0.00997  0.85800  1.0000
  C   C1071     1.0  0.90328  0.23469  0.75055  1.0000
  H   H1888     1.0  0.50321  0.23497  0.84306  1.0000
  C   C1072     1.0  0.88458  0.23074  0.64053  1.0000
  H   H1889     1.0  0.49746  0.00614  0.91995  1.0000
  Fe  Fe119     1.0  0.67521  0.44531  0.17759  1.0000
  S   S239      1.0  0.69410  0.45257  0.14052  1.0000
  S   S240      1.0  0.70280  0.43888  0.21118  1.0000
  Fe  Fe120     1.0  0.61811  0.44977  0.15541  1.0000
  S   S241      1.0  0.63534  0.45724  0.11724  1.0000
  S   S242      1.0  0.57255  0.45381  0.15379  1.0000
  Fe  Fe121     1.0  0.66628  0.44025  0.12248  1.0000
  S   S243      1.0  0.68358  0.43105  0.08741  1.0000
  Fe  Fe122     1.0  0.66128  0.46878  0.13863  1.0000
  S   S244      1.0  0.64833  0.43177  0.15961  1.0000
  S   S245      1.0  0.64321  0.46245  0.17670  1.0000
  H   H1890     1.0  0.86091  0.47967  0.35664  1.0000
  H   H1891     1.0  0.83722  0.36496  0.39429  1.0000
  H   H1892     1.0  0.83937  0.47347  0.21270  1.0000
  S   S246      1.0  0.64342  0.38374  0.03086  1.0000
  H   H1893     1.0  0.66243  0.45292  0.99112  1.0000
  H   H1894     1.0  0.73401  0.47638  0.29093  1.0000
  Fe  Fe123     1.0  0.90640  0.44365  0.29952  1.0000
  S   S247      1.0  0.89267  0.45461  0.33318  1.0000
  S   S248      1.0  0.94965  0.43482  0.30420  1.0000
  Fe  Fe124     1.0  0.84869  0.44725  0.27760  1.0000
  S   S249      1.0  0.83291  0.45832  0.31071  1.0000
  S   S250      1.0  0.82239  0.44704  0.24257  1.0000
  Fe  Fe125     1.0  0.87023  0.46907  0.30604  1.0000
  Fe  Fe126     1.0  0.85702  0.44273  0.33491  1.0000
  S   S251      1.0  0.83995  0.43450  0.37288  1.0000
  S   S252      1.0  0.88568  0.45900  0.27181  1.0000
  S   S253      1.0  0.87100  0.43074  0.30245  1.0000
  C   C1073     1.0  0.89624  0.42009  0.43637  1.0000
  C   C1074     1.0  0.86915  0.42264  0.44193  1.0000
  C   C1075     1.0  0.85215  0.42785  0.42255  1.0000
  C   C1076     1.0  0.86211  0.43041  0.39758  1.0000
  C   C1077     1.0  0.88937  0.42853  0.39240  1.0000
  C   C1078     1.0  0.90635  0.42340  0.41172  1.0000
  H   H1895     1.0  0.51398  0.39620  0.02433  1.0000
  H   H1896     1.0  0.83110  0.42947  0.42673  1.0000
  H   H1897     1.0  0.89726  0.43057  0.37329  1.0000
  H   H1898     1.0  0.92732  0.42154  0.40734  1.0000
  C   C1079     1.0  0.73575  0.44189  0.21991  1.0000
  C   C1080     1.0  0.75258  0.45010  0.20475  1.0000
  C   C1081     1.0  0.77888  0.45143  0.21187  1.0000
  C   C1082     1.0  0.78873  0.44499  0.23471  1.0000
  C   C1083     1.0  0.77170  0.43705  0.25014  1.0000
  C   C1084     1.0  0.74566  0.43544  0.24269  1.0000
  H   H1899     1.0  0.74546  0.45531  0.18734  1.0000
  H   H1900     1.0  0.79167  0.45760  0.19964  1.0000
  H   H1901     1.0  0.77873  0.43196  0.26769  1.0000
  H   H1902     1.0  0.73303  0.42908  0.25474  1.0000
  C   C1085     1.0  0.66962  0.41864  0.07172  1.0000
  C   C1086     1.0  0.65352  0.40922  0.08446  1.0000
  C   C1087     1.0  0.64535  0.39860  0.07173  1.0000
  C   C1088     1.0  0.65243  0.39762  0.04603  1.0000
  C   C1089     1.0  0.66757  0.40738  0.03311  1.0000
  C   C1090     1.0  0.67650  0.41768  0.04602  1.0000
  H   H1903     1.0  0.64838  0.40976  0.10433  1.0000
  H   H1904     1.0  0.63378  0.39104  0.08188  1.0000
  H   H1905     1.0  0.67342  0.40663  0.01344  1.0000
  H   H1906     1.0  0.68917  0.42484  0.03611  1.0000
  H   H1907     1.0  0.58968  0.42134  0.09680  1.0000
  H   H1908     1.0  0.83158  0.38246  0.42544  1.0000
  H   H1909     1.0  0.89709  0.48221  0.44928  1.0000
  C   C1091     1.0  0.53867  0.43338  0.16890  1.0000
  C   C1092     1.0  0.54124  0.44655  0.15825  1.0000
  H   H1910     1.0  0.82613  0.36427  0.34922  1.0000
  H   H1911     1.0  0.55609  0.42724  0.17502  1.0000
  C   C1093     1.0  0.82815  0.38992  0.40898  1.0000
  C   C1094     1.0  0.84171  0.35716  0.35804  1.0000
  C   C1095     1.0  0.64040  0.45367  0.99254  1.0000
  C   C1096     1.0  0.75338  0.47084  0.29486  1.0000
  H   H1912     1.0  0.79042  0.39773  0.42481  1.0000
  H   H1913     1.0  0.56555  0.46960  0.05720  1.0000
  H   H1914     1.0  0.91717  0.38428  0.37809  1.0000
  C   C1097     1.0  0.56845  0.45277  0.08643  1.0000
  C   C1098     1.0  0.63227  0.44641  0.01802  1.0000
  C   C1099     1.0  0.55022  0.35783  0.02227  1.0000
  C   C1100     1.0  0.82652  0.48327  0.24655  1.0000
  H   H1915     1.0  0.52430  0.43672  0.10773  1.0000
  H   H1916     1.0  0.76137  0.47451  0.31185  1.0000
  H   H1917     1.0  0.54340  0.48298  0.15740  1.0000
  Fe  Fe127     1.0  0.63899  0.38652  0.98835  1.0000
  C   C1101     1.0  0.85342  0.36317  0.38006  1.0000
  H   H1918     1.0  0.63819  0.43549  0.01840  1.0000
  H   H1919     1.0  0.58227  0.44935  0.10168  1.0000
  H   H1920     1.0  0.97247  0.45394  0.26505  1.0000
  C   C1102     1.0  0.57470  0.35998  0.03683  1.0000
  H   H1921     1.0  0.56856  0.39486  0.03977  1.0000
  H   H1922     1.0  0.59566  0.40120  0.02029  1.0000
  H   H1923     1.0  0.79257  0.46766  0.27843  1.0000
  H   H1924     1.0  0.81737  0.38541  0.39456  1.0000
  C   C1103     1.0  0.55256  0.41992  0.05900  1.0000
  C   C1104     1.0  0.56818  0.42294  0.10201  1.0000
  H   H1925     1.0  0.51705  0.39683  0.99036  1.0000
  C   C1105     1.0  0.51813  0.45439  0.15074  1.0000
  C   C1106     1.0  0.85431  0.39507  0.39698  1.0000
  H   H1926     1.0  0.58804  0.43853  0.06320  1.0000
  H   H1927     1.0  0.64221  0.45051  0.03353  1.0000
  H   H1928     1.0  0.83255  0.34772  0.36505  1.0000
  C   C1107     1.0  0.57983  0.41453  0.04806  1.0000
  H   H1929     1.0  0.66682  0.47393  0.06685  1.0000
  H   H1930     1.0  0.54133  0.42504  0.04281  1.0000
  H   H1931     1.0  0.93809  0.39753  0.34161  1.0000
  H   H1932     1.0  0.76783  0.46638  0.25722  1.0000
  H   H1933     1.0  0.73834  0.45215  0.28582  1.0000
  N   N58       1.0  0.55303  0.42929  0.07962  1.0000
  H   H1934     1.0  0.67490  0.48384  0.00199  1.0000
  H   H1935     1.0  0.79262  0.47871  0.22672  1.0000
  H   H1936     1.0  0.59039  0.42272  0.03741  1.0000
  C   C1108     1.0  0.88435  0.37568  0.41413  1.0000
  C   C1109     1.0  0.74837  0.45606  0.30146  1.0000
  H   H1937     1.0  0.81869  0.40554  0.43443  1.0000
  H   H1938     1.0  0.87929  0.39060  0.44241  1.0000
  H   H1939     1.0  0.56955  0.39420  0.14473  1.0000
  H   H1940     1.0  0.97475  0.47496  0.29838  1.0000
  N   N59       1.0  0.75988  0.41605  0.16022  1.0000
  C   C1110     1.0  0.75082  0.42996  0.14904  1.0000
  C   C1111     1.0  0.73721  0.41002  0.17568  1.0000
  C   C1112     1.0  0.78154  0.41756  0.17822  1.0000
  C   C1113     1.0  0.77058  0.40695  0.14040  1.0000
  C   C1114     1.0  0.75797  0.40924  0.11402  1.0000
  C   C1115     1.0  0.77321  0.43855  0.13693  1.0000
  C   C1116     1.0  0.79137  0.40469  0.19467  1.0000
  C   C1117     1.0  0.71185  0.40819  0.16158  1.0000
  C   C1118     1.0  0.68987  0.40336  0.18017  1.0000
  C   C1119     1.0  0.76640  0.39773  0.09784  1.0000
  C   C1120     1.0  0.76225  0.45077  0.12020  1.0000
  C   C1121     1.0  0.81605  0.40708  0.20872  1.0000
  H   H1941     1.0  0.74034  0.43572  0.16389  1.0000
  H   H1942     1.0  0.73574  0.42961  0.13469  1.0000
  H   H1943     1.0  0.74341  0.39980  0.18433  1.0000
  H   H1944     1.0  0.73142  0.41615  0.19175  1.0000
  H   H1945     1.0  0.77490  0.42521  0.19149  1.0000
  H   H1946     1.0  0.79936  0.42136  0.16768  1.0000
  H   H1947     1.0  0.79223  0.40789  0.13663  1.0000
  H   H1948     1.0  0.76892  0.39624  0.14767  1.0000
  H   H1949     1.0  0.76446  0.41862  0.10359  1.0000
  H   H1950     1.0  0.73605  0.41020  0.11528  1.0000
  H   H1951     1.0  0.78431  0.44237  0.15200  1.0000
  H   H1952     1.0  0.78749  0.43253  0.12534  1.0000
  H   H1953     1.0  0.79631  0.39621  0.18291  1.0000
  H   H1954     1.0  0.77598  0.40179  0.20932  1.0000
  H   H1955     1.0  0.70409  0.41769  0.15122  1.0000
  H   H1956     1.0  0.71592  0.40037  0.14822  1.0000
  H   H1957     1.0  0.69633  0.39365  0.19074  1.0000
  H   H1958     1.0  0.68437  0.41093  0.19386  1.0000
  H   H1959     1.0  0.67202  0.40187  0.16966  1.0000
  H   H1960     1.0  0.78833  0.39665  0.09514  1.0000
  H   H1961     1.0  0.75922  0.38814  0.10683  1.0000
  H   H1962     1.0  0.75760  0.39983  0.07897  1.0000
  H   H1963     1.0  0.77891  0.45624  0.11100  1.0000
  H   H1964     1.0  0.75008  0.44765  0.10518  1.0000
  H   H1965     1.0  0.75002  0.45774  0.13179  1.0000
  H   H1966     1.0  0.82227  0.39789  0.22095  1.0000
  H   H1967     1.0  0.83272  0.40953  0.19515  1.0000
  H   H1968     1.0  0.81179  0.41548  0.22091  1.0000
  H   H1969     1.0  0.63332  0.46441  0.99267  1.0000
  C   C1122     1.0  0.80991  0.40145  0.41827  1.0000
  C   C1123     1.0  0.55839  0.40964  0.11489  1.0000
  H   H1970     1.0  0.85413  0.38242  0.35742  1.0000
  C   C1124     1.0  0.57748  0.40344  0.13498  1.0000
  H   H1971     1.0  0.84857  0.40155  0.37965  1.0000
  H   H1972     1.0  0.56736  0.42990  0.11721  1.0000
  C   C1125     1.0  0.56705  0.44144  0.06862  1.0000
  C   C1126     1.0  0.73642  0.48510  0.23358  1.0000
  H   H1973     1.0  0.53875  0.41158  0.12454  1.0000
  C   C1127     1.0  0.94084  0.46938  0.38713  1.0000
  H   H1974     1.0  0.59920  0.46305  0.06383  1.0000
  H   H1975     1.0  0.86807  0.35548  0.38879  1.0000
  C   C1128     1.0  0.89652  0.40020  0.35436  1.0000
  H   H1976     1.0  0.59723  0.40070  0.12613  1.0000
  H   H1977     1.0  0.57985  0.41058  0.14934  1.0000
  H   H1978     1.0  0.86801  0.36973  0.42245  1.0000
  C   C1129     1.0  0.93960  0.47270  0.35806  1.0000
  H   H1979     1.0  0.55697  0.40207  0.10122  1.0000
  C   C1130     1.0  0.50274  0.42434  0.08563  1.0000
  S   S254      1.0  0.91789  0.41184  0.45886  1.0000
  H   H1980     1.0  0.92992  0.41237  0.35818  1.0000
  C   C1131     1.0  0.95307  0.47704  0.30134  1.0000
  C   C1132     1.0  0.92273  0.40579  0.34466  1.0000
  C   C1133     1.0  0.90067  0.37302  0.45903  1.0000
  H   H1981     1.0  0.96131  0.46956  0.39362  1.0000
  H   H1982     1.0  0.90575  0.39872  0.39348  1.0000
  H   H1983     1.0  0.92028  0.48418  0.27707  1.0000
  C   C1134     1.0  0.52497  0.43402  0.08781  1.0000
  H   H1984     1.0  0.72876  0.47605  0.24430  1.0000
  H   H1985     1.0  0.54168  0.41096  0.06553  1.0000
  H   H1986     1.0  0.86160  0.48251  0.44708  1.0000
  C   C1135     1.0  0.68616  0.47592  0.05695  1.0000
  H   H1987     1.0  0.61811  0.48501  0.11490  1.0000
  C   C1136     1.0  0.89440  0.38292  0.43603  1.0000
  H   H1988     1.0  0.89897  0.45759  0.46126  1.0000
  H   H1989     1.0  0.94601  0.47400  0.26228  1.0000
  H   H1990     1.0  0.56910  0.36151  0.05685  1.0000
  H   H1991     1.0  0.76732  0.44996  0.30502  1.0000
  H   H1992     1.0  0.91626  0.36520  0.45404  1.0000
  H   H1993     1.0  0.90804  0.37852  0.47418  1.0000
  H   H1994     1.0  0.94573  0.46341  0.34885  1.0000
  H   H1995     1.0  0.86554  0.48002  0.22860  1.0000
  H   H1996     1.0  0.91293  0.38780  0.43018  1.0000
  H   H1997     1.0  0.61048  0.44780  0.02150  1.0000
  H   H1998     1.0  0.88257  0.46197  0.43191  1.0000
  H   H1999     1.0  0.49993  0.42293  0.06547  1.0000
  H   H2000     1.0  0.88995  0.39421  0.33962  1.0000
  H   H2001     1.0  0.88185  0.40889  0.35614  1.0000
  C   C1137     1.0  0.84464  0.48199  0.22297  1.0000
  C   C1138     1.0  0.89981  0.39168  0.38022  1.0000
  H   H2002     1.0  0.91822  0.47488  0.35401  1.0000
  H   H2003     1.0  0.55750  0.44587  0.05095  1.0000
  C   C1139     1.0  0.57627  0.40405  0.02961  1.0000
  H   H2004     1.0  0.56247  0.40813  0.01467  1.0000
  H   H2005     1.0  0.52565  0.37281  0.04142  1.0000
  H   H2006     1.0  0.90976  0.45538  0.39025  1.0000
  C   C1140     1.0  0.98814  0.44974  0.27714  1.0000
  H   H2007     1.0  0.88258  0.36815  0.46658  1.0000
  N   N60       1.0  0.95503  0.48430  0.34704  1.0000
  H   H2008     1.0  0.90044  0.36812  0.40878  1.0000
  H   H2009     1.0  0.80662  0.40964  0.40286  1.0000
  C   C1141     1.0  0.51334  0.42824  0.17236  1.0000
  H   H2010     1.0  0.94383  0.46760  0.30801  1.0000
  H   H2011     1.0  0.99031  0.46045  0.36486  1.0000
  C   C1142     1.0  0.57908  0.46538  0.07228  1.0000
  H   H2012     1.0  0.59255  0.40966  0.06321  1.0000
  H   H2013     1.0  0.54183  0.37880  0.01283  1.0000
  H   H2014     1.0  0.86180  0.40207  0.40944  1.0000
  H   H2015     1.0  0.51975  0.46456  0.14238  1.0000
  H   H2016     1.0  0.74977  0.48181  0.21786  1.0000
  H   H2017     1.0  0.86120  0.42022  0.46092  1.0000
  N   N61       1.0  0.50493  0.36964  0.00811  1.0000
  C   C1143     1.0  0.77345  0.47258  0.27204  1.0000
  N   N62       1.0  0.87590  0.38454  0.39083  1.0000
  H   H2018     1.0  0.82912  0.47375  0.25879  1.0000
  H   H2019     1.0  0.50746  0.41437  0.09590  1.0000
  H   H2020     1.0  0.70723  0.47410  0.09216  1.0000
  H   H2021     1.0  0.91977  0.41188  0.32630  1.0000
  H   H2022     1.0  0.51162  0.41810  0.18095  1.0000
  C   C1144     1.0  0.86732  0.37614  0.37084  1.0000
  H   H2023     1.0  0.64267  0.48392  0.03492  1.0000
  H   H2024     1.0  0.88482  0.37259  0.35907  1.0000
  H   H2025     1.0  0.73531  0.45498  0.31880  1.0000
  H   H2026     1.0  0.86321  0.45789  0.46043  1.0000
  H   H2027     1.0  0.51821  0.44345  0.07634  1.0000
  H   H2028     1.0  0.93175  0.45348  0.41625  1.0000
  C   C1145     1.0  0.93073  0.45561  0.39542  1.0000
  C   C1146     1.0  0.50291  0.39598  0.00683  1.0000
  H   H2029     1.0  0.94296  0.44758  0.38632  1.0000
  C   C1147     1.0  0.53037  0.37044  0.02157  1.0000
  H   H2030     1.0  0.70495  0.45854  0.07837  1.0000
  H   H2031     1.0  0.68763  0.47089  0.03917  1.0000
  C   C1148     1.0  0.70791  0.46939  0.07404  1.0000
  C   C1149     1.0  0.87887  0.47774  0.45749  1.0000
  H   H2032     1.0  0.54885  0.45568  0.09528  1.0000
  H   H2033     1.0  0.99162  0.48457  0.36683  1.0000
  C   C1150     1.0  0.98235  0.44033  0.29743  1.0000
  H   H2034     1.0  0.72777  0.47036  0.06457  1.0000
  H   H2035     1.0  0.85743  0.35480  0.34351  1.0000
  C   C1151     1.0  0.88106  0.46289  0.45260  1.0000
  H   H2036     1.0  0.58485  0.36884  0.02812  1.0000
  H   H2037     1.0  0.58054  0.47308  0.08578  1.0000
  H   H2038     1.0  0.54134  0.34883  0.03180  1.0000
  H   H2039     1.0  0.92800  0.47693  0.39698  1.0000
  H   H2040     1.0  0.98871  0.46210  0.33129  1.0000
  C   C1152     1.0  0.51004  0.36545  0.98173  1.0000
  H   H2041     1.0  0.55713  0.35570  0.00283  1.0000
  C   C1153     1.0  0.94207  0.48191  0.27546  1.0000
  C   C1154     1.0  0.98474  0.48151  0.34875  1.0000
  C   C1155     1.0  0.79713  0.48642  0.23935  1.0000
  H   H2042     1.0  0.58899  0.35102  0.03647  1.0000
  H   H2043     1.0  0.59545  0.48626  0.02324  1.0000
  H   H2044     1.0  0.51883  0.35490  0.98247  1.0000
  H   H2045     1.0  0.50019  0.34903  0.02348  1.0000
  C   C1156     1.0  0.99606  0.46672  0.34744  1.0000
  H   H2046     1.0  0.93480  0.37883  0.61491  1.0000
  H   H2047     1.0  0.67008  0.44914  0.93630  1.0000
  S   S255      1.0  0.62924  0.45504  0.83017  1.0000
  H   H2048     1.0  0.86804  0.39773  0.67510  1.0000
  H   H2049     1.0  0.54686  0.32562  0.86539  1.0000
  S   S256      1.0  0.89945  0.45643  0.64820  1.0000
  Fe  Fe128     1.0  0.88813  0.27516  0.66605  1.0000
  S   S257      1.0  0.89247  0.27026  0.70773  1.0000
  S   S258      1.0  0.88812  0.25806  0.64082  1.0000
  Fe  Fe129     1.0  0.88611  0.30558  0.66979  1.0000
  S   S259      1.0  0.88917  0.30218  0.71216  1.0000
  S   S260      1.0  0.88630  0.32808  0.65707  1.0000
  Fe  Fe130     1.0  0.92157  0.28630  0.70409  1.0000
  S   S261      1.0  0.96014  0.28616  0.72500  1.0000
  Fe  Fe131     1.0  0.85953  0.28656  0.71138  1.0000
  S   S262      1.0  0.82633  0.28179  0.74132  1.0000
  S   S263      1.0  0.91954  0.29019  0.66198  1.0000
  S   S264      1.0  0.85416  0.29094  0.66961  1.0000
  Fe  Fe132     1.0  0.61480  0.28738  0.80409  1.0000
  S   S265      1.0  0.63231  0.28112  0.84212  1.0000
  S   S266      1.0  0.56966  0.28992  0.81155  1.0000
  Fe  Fe133     1.0  0.67134  0.28750  0.77825  1.0000
  S   S267      1.0  0.69047  0.28130  0.81489  1.0000
  S   S268      1.0  0.69936  0.29112  0.74328  1.0000
  Fe  Fe134     1.0  0.65900  0.26655  0.82132  1.0000
  S   S269      1.0  0.67000  0.24484  0.83621  1.0000
  Fe  Fe135     1.0  0.66158  0.29667  0.83156  1.0000
  S   S270      1.0  0.67855  0.31154  0.85592  1.0000
  S   S271      1.0  0.64064  0.27200  0.78381  1.0000
  S   S272      1.0  0.64334  0.30363  0.79444  1.0000
  Fe  Fe136     1.0  0.65309  0.40011  0.93645  1.0000
  S   S273      1.0  0.66428  0.37940  0.95521  1.0000
  S   S274      1.0  0.68136  0.41366  0.91428  1.0000
  H   H2050     1.0  0.59519  0.24847  0.76654  1.0000
  Fe  Fe137     1.0  0.62612  0.37373  0.93990  1.0000
  S   S275      1.0  0.61488  0.35655  0.91775  1.0000
  S   S276      1.0  0.61661  0.39411  0.91965  1.0000
  Fe  Fe138     1.0  0.87634  0.41232  0.54914  1.0000
  S   S277      1.0  0.86972  0.39828  0.51959  1.0000
  S   S278      1.0  0.84538  0.42541  0.56875  1.0000
  Fe  Fe139     1.0  0.93506  0.40578  0.54917  1.0000
  S   S279      1.0  0.93361  0.39096  0.52036  1.0000
  S   S280      1.0  0.97175  0.41098  0.56724  1.0000
  Fe  Fe140     1.0  0.90615  0.40665  0.50009  1.0000
  Fe  Fe141     1.0  0.89781  0.38377  0.54238  1.0000
  S   S281      1.0  0.89382  0.36120  0.54868  1.0000
  S   S282      1.0  0.91016  0.42187  0.52767  1.0000
  S   S283      1.0  0.90173  0.39725  0.57303  1.0000
  C   C1157     1.0  0.96612  0.31993  0.58199  1.0000
  H   H2051     1.0  0.63434  0.24315  0.79536  1.0000
  C   C1158     1.0  0.66046  0.32400  0.87300  1.0000
  C   C1159     1.0  0.63304  0.32667  0.87130  1.0000
  C   C1160     1.0  0.61957  0.33669  0.88501  1.0000
  C   C1161     1.0  0.63324  0.34422  0.90058  1.0000
  C   C1162     1.0  0.66070  0.34162  0.90217  1.0000
  C   C1163     1.0  0.67420  0.33160  0.88841  1.0000
  H   H2052     1.0  0.62216  0.32094  0.85955  1.0000
  H   H2053     1.0  0.59832  0.33855  0.88371  1.0000
  H   H2054     1.0  0.67146  0.34712  0.91439  1.0000
  H   H2055     1.0  0.69538  0.32960  0.88999  1.0000
  H   H2056     1.0  0.89123  0.47285  0.49561  1.0000
  H   H2057     1.0  0.63072  0.40780  0.83402  1.0000
  C   C1164     1.0  0.88972  0.33679  0.62656  1.0000
  C   C1165     1.0  0.88845  0.33048  0.60432  1.0000
  C   C1166     1.0  0.88981  0.33807  0.58059  1.0000
  C   C1167     1.0  0.89257  0.35199  0.57886  1.0000
  C   C1168     1.0  0.89449  0.35822  0.60106  1.0000
  C   C1169     1.0  0.89308  0.35066  0.62475  1.0000
  H   H2058     1.0  0.88586  0.31982  0.60543  1.0000
  H   H2059     1.0  0.88840  0.33314  0.56351  1.0000
  H   H2060     1.0  0.89685  0.36886  0.59993  1.0000
  H   H2061     1.0  0.89440  0.35557  0.64184  1.0000
  C   C1170     1.0  0.79109  0.28438  0.74082  1.0000
  C   C1171     1.0  0.77798  0.29240  0.72157  1.0000
  C   C1172     1.0  0.74998  0.29436  0.72257  1.0000
  C   C1173     1.0  0.73468  0.28832  0.74274  1.0000
  C   C1174     1.0  0.74783  0.28012  0.76172  1.0000
  C   C1175     1.0  0.77578  0.27824  0.76081  1.0000
  H   H2062     1.0  0.78941  0.29720  0.70602  1.0000
  H   H2063     1.0  0.74010  0.30068  0.70768  1.0000
  H   H2064     1.0  0.73645  0.27524  0.77719  1.0000
  H   H2065     1.0  0.78562  0.27198  0.77580  1.0000
  C   C1176     1.0  0.88446  0.44909  0.62432  1.0000
  C   C1177     1.0  0.85734  0.45152  0.62020  1.0000
  C   C1178     1.0  0.84538  0.44445  0.60270  1.0000
  C   C1179     1.0  0.86063  0.43513  0.58900  1.0000
  C   C1180     1.0  0.88792  0.43316  0.59245  1.0000
  C   C1181     1.0  0.89973  0.44001  0.61024  1.0000
  H   H2066     1.0  0.84545  0.45852  0.63108  1.0000
  H   H2067     1.0  0.82429  0.44606  0.60000  1.0000
  H   H2068     1.0  0.89993  0.42609  0.58191  1.0000
  H   H2069     1.0  0.92073  0.43816  0.61324  1.0000
  C   C1182     1.0  0.64438  0.44384  0.85350  1.0000
  C   C1183     1.0  0.66897  0.44591  0.86290  1.0000
  C   C1184     1.0  0.68063  0.43641  0.88109  1.0000
  C   C1185     1.0  0.66747  0.42502  0.89028  1.0000
  C   C1186     1.0  0.64307  0.42299  0.88063  1.0000
  C   C1187     1.0  0.63170  0.43228  0.86217  1.0000
  H   H2070     1.0  0.67913  0.45471  0.85588  1.0000
  H   H2071     1.0  0.69978  0.43790  0.88815  1.0000
  H   H2072     1.0  0.63297  0.41423  0.88712  1.0000
  H   H2073     1.0  0.61283  0.43057  0.85472  1.0000
  C   C1188     1.0  0.68510  0.37357  0.88438  1.0000
  C   C1189     1.0  0.81603  0.24232  0.76028  1.0000
  H   H2074     1.0  0.96237  0.34275  0.53107  1.0000
  C   C1190     1.0  0.52301  0.32242  0.83355  1.0000
  H   H2075     1.0  0.78814  0.48626  0.66743  1.0000
  H   H2076     1.0  0.92827  0.48256  0.48944  1.0000
  H   H2077     1.0  0.49943  0.43761  0.82370  1.0000
  H   H2078     1.0  0.54562  0.26097  0.79345  1.0000
  H   H2079     1.0  0.61976  0.45224  0.90655  1.0000
  C   C1191     1.0  0.53906  0.28874  0.76946  1.0000
  C   C1192     1.0  0.53998  0.28840  0.79578  1.0000
  C   C1193     1.0  0.97937  0.45443  0.59814  1.0000
  H   H2080     1.0  0.55702  0.28990  0.75788  1.0000
  H   H2081     1.0  0.87003  0.47258  0.53700  1.0000
  C   C1194     1.0  0.66193  0.46812  0.91376  1.0000
  H   H2082     1.0  0.56185  0.39823  0.91443  1.0000
  H   H2083     1.0  0.80484  0.43324  0.68600  1.0000
  C   C1195     1.0  0.65740  0.45866  0.93803  1.0000
  C   C1196     1.0  0.53625  0.36748  0.93997  1.0000
  H   H2084     1.0  0.97761  0.40495  0.51529  1.0000
  H   H2085     1.0  0.95589  0.31521  0.65618  1.0000
  C   C1197     1.0  0.99016  0.34154  0.57524  1.0000
  H   H2086     1.0  0.73374  0.23881  0.80085  1.0000
  C   C1198     1.0  0.51417  0.23798  0.82495  1.0000
  H   H2087     1.0  0.69471  0.26956  0.67882  1.0000
  H   H2088     1.0  0.60523  0.37134  0.84015  1.0000
  H   H2089     1.0  0.91557  0.24178  0.73870  1.0000
  H   H2090     1.0  0.51694  0.28641  0.83085  1.0000
  H   H2091     1.0  0.96989  0.45824  0.76674  1.0000
  H   H2092     1.0  0.67475  0.39394  0.86999  1.0000
  H   H2093     1.0  0.64507  0.36571  0.82385  1.0000
  N   N63       1.0  0.78003  0.24854  0.69617  1.0000
  C   C1199     1.0  0.97160  0.36131  0.54689  1.0000
  C   C1200     1.0  0.79204  0.25351  0.67077  1.0000
  C   C1201     1.0  0.75584  0.25732  0.70335  1.0000
  C   C1202     1.0  0.99008  0.41268  0.63709  1.0000
  H   H2094     1.0  0.83548  0.35054  0.67339  1.0000
  H   H2095     1.0  0.76459  0.45881  0.67220  1.0000
  C   C1203     1.0  0.73344  0.25901  0.68408  1.0000
  C   C1204     1.0  0.79697  0.26867  0.66696  1.0000
  C   C1205     1.0  0.80881  0.27232  0.64044  1.0000
  H   H2096     1.0  0.96635  0.47543  0.60224  1.0000
  H   H2097     1.0  0.97311  0.41450  0.62437  1.0000
  C   C1206     1.0  0.71109  0.26900  0.69216  1.0000
  H   H2098     1.0  0.80540  0.25935  0.71739  1.0000
  H   H2099     1.0  0.61147  0.47726  0.90734  1.0000
  C   C1207     1.0  0.61115  0.46815  0.94715  1.0000
  H   H2100     1.0  0.77964  0.25125  0.65514  1.0000
  H   H2101     1.0  0.76148  0.26742  0.70712  1.0000
  H   H2102     1.0  0.56558  0.32293  0.83639  1.0000
  H   H2103     1.0  0.65332  0.47835  0.91675  1.0000
  H   H2104     1.0  0.78738  0.42833  0.65993  1.0000
  H   H2105     1.0  0.64419  0.38831  0.80747  1.0000
  H   H2106     1.0  0.51407  0.28830  0.73767  1.0000
  H   H2107     1.0  0.73245  0.23679  0.76758  1.0000
  H   H2108     1.0  0.94729  0.31566  0.58925  1.0000
  H   H2109     1.0  0.95999  0.35194  0.48664  1.0000
  H   H2110     1.0  0.74078  0.26273  0.66492  1.0000
  H   H2111     1.0  0.77831  0.27508  0.66904  1.0000
  H   H2112     1.0  0.67306  0.34586  0.80864  1.0000
  H   H2113     1.0  0.79558  0.26978  0.62577  1.0000
  H   H2114     1.0  0.81124  0.28328  0.63766  1.0000
  H   H2115     1.0  0.82860  0.26690  0.63789  1.0000
  C   C1208     1.0  0.52744  0.37443  0.96369  1.0000
  C   C1209     1.0  0.96630  0.46517  0.71442  1.0000
  H   H2116     1.0  0.95385  0.46362  0.62700  1.0000
  C   C1210     1.0  0.54825  0.31982  0.84853  1.0000
  H   H2117     1.0  0.92431  0.46665  0.72500  1.0000
  C   C1211     1.0  0.88048  0.24197  0.65462  1.0000
  C   C1212     1.0  0.80047  0.24885  0.71581  1.0000
  H   H2118     1.0  0.88593  0.47460  0.57901  1.0000
  H   H2119     1.0  0.59921  0.26075  0.87798  1.0000
  H   H2120     1.0  0.59159  0.42752  0.90259  1.0000
  H   H2121     1.0  0.72689  0.37722  0.88638  1.0000
  H   H2122     1.0  0.66531  0.40961  0.83866  1.0000
  Fe  Fe142     1.0  0.88287  0.47723  0.65540  1.0000
  H   H2123     1.0  0.56308  0.38332  0.85203  1.0000
  H   H2124     1.0  0.93778  0.36159  0.50655  1.0000
  H   H2125     1.0  0.76160  0.33302  0.88961  1.0000
  C   C1213     1.0  0.62007  0.44682  0.92575  1.0000
  H   H2126     1.0  0.71219  0.36934  0.91504  1.0000
  C   C1214     1.0  0.59711  0.47444  0.92287  1.0000
  H   H2127     1.0  0.53811  0.42539  0.87950  1.0000
  C   C1215     1.0  0.54144  0.40166  0.91779  1.0000
  C   C1216     1.0  0.54731  0.24887  0.84693  1.0000
  H   H2128     1.0  0.55974  0.43391  0.91417  1.0000
  H   H2129     1.0  0.58116  0.37754  0.87987  1.0000
  H   H2130     1.0  0.95111  0.46577  0.79110  1.0000
  H   H2131     1.0  0.95878  0.33671  0.60399  1.0000
  H   H2132     1.0  0.99144  0.38210  0.59306  1.0000
  H   H2133     1.0  0.49736  0.41970  0.86201  1.0000
  H   H2134     1.0  0.94029  0.46499  0.59612  1.0000
  H   H2135     1.0  0.57958  0.44473  0.89336  1.0000
  H   H2136     1.0  0.98958  0.43330  0.64409  1.0000
  N   N64       1.0  0.98784  0.35663  0.56969  1.0000
  H   H2137     1.0  0.63839  0.41231  0.78755  1.0000
  H   H2138     1.0  0.82757  0.38768  0.67963  1.0000
  H   H2139     1.0  0.58033  0.26527  0.76021  1.0000
  H   H2140     1.0  0.68937  0.36910  0.80522  1.0000
  C   C1217     1.0  0.70867  0.37703  0.89884  1.0000
  H   H2141     1.0  0.78013  0.46633  0.69695  1.0000
  H   H2142     1.0  0.50242  0.30639  0.85235  1.0000
  H   H2143     1.0  0.70864  0.34604  0.80909  1.0000
  C   C1218     1.0  0.59275  0.44098  0.93222  1.0000
  H   H2144     1.0  0.70448  0.36516  0.83523  1.0000
  H   H2145     1.0  0.67784  0.39054  0.81214  1.0000
  H   H2146     1.0  0.60456  0.38885  0.82843  1.0000
  H   H2147     1.0  0.52071  0.33327  0.82728  1.0000
  H   H2148     1.0  0.94716  0.33958  0.57240  1.0000
  C   C1219     1.0  0.79255  0.24307  0.74301  1.0000
  H   H2149     1.0  0.80973  0.23855  0.77979  1.0000
  H   H2150     1.0  0.72470  0.24929  0.68282  1.0000
  C   C1220     1.0  0.93027  0.45194  0.77158  1.0000
  H   H2151     1.0  0.63463  0.43805  0.92382  1.0000
  H   H2152     1.0  0.97460  0.45647  0.72668  1.0000
  N   N65       1.0  0.54339  0.23815  0.82959  1.0000
  C   C1221     1.0  0.65277  0.41508  0.80099  1.0000
  H   H2153     1.0  0.65303  0.46465  0.89714  1.0000
  H   H2154     1.0  0.52741  0.39158  0.88747  1.0000
  H   H2155     1.0  0.97035  0.44464  0.60179  1.0000
  H   H2156     1.0  0.64788  0.42574  0.80471  1.0000
  N   N66       1.0  0.76934  0.31140  0.81302  1.0000
  C   C1222     1.0  0.74242  0.31816  0.80685  1.0000
  C   C1223     1.0  0.78111  0.31806  0.83395  1.0000
  C   C1224     1.0  0.78718  0.31326  0.78952  1.0000
  C   C1225     1.0  0.76820  0.29653  0.82007  1.0000
  C   C1226     1.0  0.75049  0.29233  0.84349  1.0000
  C   C1227     1.0  0.72801  0.31290  0.78508  1.0000
  C   C1228     1.0  0.81672  0.30802  0.79221  1.0000
  C   C1229     1.0  0.76147  0.32424  0.85387  1.0000
  C   C1230     1.0  0.77608  0.32835  0.87611  1.0000
  C   C1231     1.0  0.75071  0.27702  0.84804  1.0000
  C   C1232     1.0  0.70167  0.32106  0.78046  1.0000
  C   C1233     1.0  0.83362  0.31309  0.76918  1.0000
  H   H2157     1.0  0.74429  0.32910  0.80194  1.0000
  H   H2158     1.0  0.72836  0.31735  0.82349  1.0000
  H   H2159     1.0  0.79566  0.31089  0.84428  1.0000
  H   H2160     1.0  0.79272  0.32659  0.82586  1.0000
  H   H2161     1.0  0.78651  0.32409  0.78231  1.0000
  H   H2162     1.0  0.78022  0.30785  0.77402  1.0000
  H   H2163     1.0  0.76171  0.29156  0.80389  1.0000
  H   H2164     1.0  0.78835  0.29181  0.82404  1.0000
  H   H2165     1.0  0.72968  0.29636  0.84109  1.0000
  H   H2166     1.0  0.75808  0.29587  0.86072  1.0000
  H   H2167     1.0  0.73970  0.31375  0.76694  1.0000
  H   H2168     1.0  0.72370  0.30228  0.78994  1.0000
  H   H2169     1.0  0.81856  0.29686  0.79341  1.0000
  H   H2170     1.0  0.82540  0.31124  0.80921  1.0000
  H   H2171     1.0  0.75052  0.33342  0.84508  1.0000
  H   H2172     1.0  0.74657  0.31725  0.86159  1.0000
  H   H2173     1.0  0.80572  0.36071  0.66514  1.0000
  C   C1234     1.0  0.97183  0.37797  0.59208  1.0000
  H   H2174     1.0  0.57845  0.44828  0.94096  1.0000
  H   H2175     1.0  0.77081  0.27262  0.85299  1.0000
  H   H2176     1.0  0.73656  0.27425  0.86394  1.0000
  H   H2177     1.0  0.74466  0.27262  0.83098  1.0000
  H   H2178     1.0  0.69111  0.31683  0.76555  1.0000
  H   H2179     1.0  0.68885  0.32075  0.79800  1.0000
  H   H2180     1.0  0.70509  0.33165  0.77386  1.0000
  H   H2181     1.0  0.83448  0.32416  0.76828  1.0000
  H   H2182     1.0  0.85414  0.30834  0.77049  1.0000
  H   H2183     1.0  0.82540  0.31044  0.75143  1.0000
  H   H2184     1.0  0.95396  0.35925  0.59565  1.0000
  H   H2185     1.0  0.96447  0.37883  0.63270  1.0000
  C   C1235     1.0  0.93903  0.43969  0.78938  1.0000
  H   H2186     1.0  0.54552  0.37687  0.97259  1.0000
  H   H2187     1.0  0.54719  0.35763  0.94505  1.0000
  H   H2188     1.0  0.70119  0.47319  0.92349  1.0000
  H   H2189     1.0  0.51883  0.36599  0.92885  1.0000
  C   C1236     1.0  0.52194  0.39789  0.90255  1.0000
  Fe  Fe143     1.0  0.59579  0.39980  0.95538  1.0000
  C   C1237     1.0  0.66049  0.36728  0.83731  1.0000
  H   H2190     1.0  0.65689  0.35982  0.85381  1.0000
  H   H2191     1.0  0.68990  0.34213  0.83804  1.0000
  H   H2192     1.0  0.95021  0.36287  0.55255  1.0000
  H   H2193     1.0  0.70148  0.45943  0.90383  1.0000
  C   C1238     1.0  0.58111  0.38460  0.86242  1.0000
  H   H2194     1.0  0.49904  0.32110  0.86866  1.0000
  H   H2195     1.0  0.98316  0.45650  0.57748  1.0000
  C   C1239     1.0  0.60586  0.38171  0.84565  1.0000
  N   N67       1.0  0.84296  0.39631  0.64358  1.0000
  C   C1240     1.0  0.86981  0.39725  0.65425  1.0000
  C   C1241     1.0  0.82893  0.38551  0.65946  1.0000
  C   C1242     1.0  0.84689  0.39305  0.61648  1.0000
  C   C1243     1.0  0.82626  0.40943  0.64394  1.0000
  N   N68       1.0  0.94390  0.47560  0.75392  1.0000
  C   C1244     1.0  0.88572  0.40909  0.64254  1.0000
  C   C1245     1.0  0.82192  0.38922  0.60368  1.0000
  C   C1246     1.0  0.97457  0.36243  0.59274  1.0000
  H   H2196     1.0  0.58405  0.46743  0.91561  1.0000
  C   C1247     1.0  0.87527  0.47942  0.48625  1.0000
  H   H2197     1.0  0.90259  0.47862  0.53443  1.0000
  C   C1248     1.0  0.82846  0.38640  0.57627  1.0000
  H   H2198     1.0  0.88269  0.38796  0.65149  1.0000
  C   C1249     1.0  0.84222  0.37103  0.65908  1.0000
  H   H2199     1.0  0.84225  0.41695  0.67764  1.0000
  H   H2200     1.0  0.80799  0.38549  0.65392  1.0000
  H   H2201     1.0  0.86266  0.38481  0.61465  1.0000
  H   H2202     1.0  0.85426  0.40182  0.60457  1.0000
  H   H2203     1.0  0.83418  0.41717  0.62970  1.0000
  H   H2204     1.0  0.80591  0.40824  0.63786  1.0000
  H   H2205     1.0  0.74660  0.25319  0.72154  1.0000
  H   H2206     1.0  0.53338  0.44260  0.86622  1.0000
  H   H2207     1.0  0.89018  0.40817  0.62217  1.0000
  H   H2208     1.0  0.90867  0.41082  0.67564  1.0000
  H   H2209     1.0  0.80610  0.39751  0.60347  1.0000
  H   H2210     1.0  0.81392  0.38004  0.61348  1.0000
  H   H2211     1.0  0.94923  0.46793  0.67703  1.0000
  C   C1250     1.0  0.55945  0.23988  0.80495  1.0000
  H   H2212     1.0  0.98522  0.35849  0.61010  1.0000
  C   C1251     1.0  0.95899  0.35887  0.50182  1.0000
  H   H2213     1.0  0.72732  0.48210  0.76934  1.0000
  C   C1252     1.0  0.51466  0.28785  0.75806  1.0000
  H   H2214     1.0  0.82345  0.25243  0.76089  1.0000
  C   C1253     1.0  0.67930  0.38418  0.86171  1.0000
  C   C1254     1.0  0.91211  0.40925  0.65531  1.0000
  H   H2215     1.0  0.59498  0.46630  0.96172  1.0000
  C   C1255     1.0  0.57622  0.25479  0.76705  1.0000
  H   H2216     1.0  0.59543  0.43204  0.94609  1.0000
  H   H2217     1.0  0.81061  0.38323  0.56771  1.0000
  H   H2218     1.0  0.83469  0.39564  0.56514  1.0000
  H   H2219     1.0  0.55174  0.30894  0.85467  1.0000
  H   H2220     1.0  0.95277  0.39367  0.61338  1.0000
  C   C1256     1.0  0.95492  0.38253  0.61472  1.0000
  H   H2221     1.0  0.71835  0.27919  0.69196  1.0000
  C   C1257     1.0  0.99282  0.28086  0.71457  1.0000
  N   N69       1.0  0.62913  0.45549  0.94491  1.0000
  C   C1258     1.0  0.77243  0.47988  0.66308  1.0000
  H   H2222     1.0  0.86642  0.24875  0.69033  1.0000
  H   H2223     1.0  0.69810  0.38548  0.85034  1.0000
  H   H2224     1.0  0.79070  0.33577  0.86945  1.0000
  C   C1259     1.0  0.88152  0.48139  0.53924  1.0000
  H   H2225     1.0  0.84528  0.36800  0.63958  1.0000
  C   C1260     1.0  0.57540  0.24857  0.85769  1.0000
  H   H2226     1.0  0.62949  0.39295  0.86800  1.0000
  H   H2227     1.0  0.82221  0.36297  0.69387  1.0000
  H   H2228     1.0  0.81161  0.24800  0.66724  1.0000
  H   H2229     1.0  0.99509  0.47449  0.77915  1.0000
  H   H2230     1.0  0.87468  0.41893  0.64460  1.0000
  N   N70       1.0  0.65725  0.38140  0.84512  1.0000
  H   H2231     1.0  0.52616  0.31685  0.81641  1.0000
  C   C1261     1.0  0.97272  0.35196  0.52508  1.0000
  H   H2232     1.0  0.94003  0.44249  0.80903  1.0000
  H   H2233     1.0  0.81101  0.27127  0.68083  1.0000
  H   H2234     1.0  0.57828  0.24003  0.87246  1.0000
  C   C1262     1.0  0.51637  0.28692  0.81048  1.0000
  H   H2235     1.0  0.95877  0.43528  0.78310  1.0000
  H   H2236     1.0  0.78649  0.31942  0.88627  1.0000
  C   C1263     1.0  0.53425  0.40937  0.93791  1.0000
  H   H2237     1.0  0.94561  0.45162  0.69364  1.0000
  H   H2238     1.0  0.70307  0.26588  0.71147  1.0000
  H   H2239     1.0  0.58016  0.39508  0.86780  1.0000
  H   H2240     1.0  0.63092  0.37547  0.87663  1.0000
  H   H2241     1.0  0.92432  0.39968  0.65349  1.0000
  H   H2242     1.0  0.97735  0.37139  0.53872  1.0000
  H   H2243     1.0  0.84453  0.37825  0.57518  1.0000
  C   C1264     1.0  0.68978  0.34842  0.81970  1.0000
  H   H2244     1.0  0.92905  0.44851  0.75246  1.0000
  H   H2245     1.0  0.93788  0.48191  0.71445  1.0000
  H   H2246     1.0  0.98176  0.27275  0.68084  1.0000
  H   H2247     1.0  0.51578  0.38392  0.95769  1.0000
  C   C1265     1.0  0.96387  0.33508  0.58388  1.0000
  H   H2248     1.0  0.81182  0.40880  0.68373  1.0000
  H   H2249     1.0  0.92332  0.41762  0.64615  1.0000
  C   C1266     1.0  0.57911  0.26136  0.87020  1.0000
  H   H2250     1.0  0.86176  0.37023  0.66797  1.0000
  H   H2251     1.0  0.70466  0.38695  0.90641  1.0000
  C   C1267     1.0  0.82526  0.36075  0.67383  1.0000
  C   C1268     1.0  0.56413  0.25445  0.79395  1.0000
  C   C1269     1.0  0.65779  0.39112  0.82165  1.0000
  H   H2252     1.0  0.57722  0.27028  0.85619  1.0000
  H   H2253     1.0  0.59120  0.24739  0.84271  1.0000
  H   H2254     1.0  0.57809  0.25899  0.80559  1.0000
  C   C1270     1.0  0.82288  0.41546  0.66982  1.0000
  H   H2255     1.0  0.89992  0.23844  0.76952  1.0000
  S   S284      1.0  0.88366  0.48340  0.69470  1.0000
  H   H2256     1.0  0.69011  0.36344  0.87810  1.0000
  C   C1271     1.0  0.76276  0.48643  0.74618  1.0000
  H   H2257     1.0  0.67312  0.41424  0.79227  1.0000
  C   C1272     1.0  0.58030  0.43657  0.90903  1.0000
  C   C1273     1.0  0.87011  0.24021  0.67943  1.0000
  C   C1274     1.0  0.68746  0.36330  0.82399  1.0000
  Fe  Fe144     1.0  0.63538  0.47716  0.82875  1.0000
  H   H2258     1.0  0.98253  0.31501  0.59347  1.0000
  H   H2259     1.0  0.97746  0.45586  0.67979  1.0000
  H   H2260     1.0  0.66772  0.37307  0.89784  1.0000
  H   H2261     1.0  0.98228  0.40944  0.65640  1.0000
  H   H2262     1.0  0.54992  0.37373  0.92791  1.0000
  H   H2263     1.0  0.81950  0.24358  0.70985  1.0000
  H   H2264     1.0  0.50303  0.25977  0.82393  1.0000
  H   H2265     1.0  0.64089  0.43736  0.96855  1.0000
  C   C1275     1.0  0.69152  0.46931  0.90763  1.0000
  C   C1276     1.0  0.94182  0.47251  0.72687  1.0000
  H   H2266     1.0  0.54281  0.25909  0.83745  1.0000
  H   H2267     1.0  0.76872  0.47596  0.74453  1.0000
  C   C1277     1.0  0.97252  0.31195  0.66881  1.0000
  C   C1278     1.0  0.80733  0.42918  0.66724  1.0000
  C   C1279     1.0  0.65112  0.40613  0.82585  1.0000
  C   C1280     1.0  0.63136  0.38307  0.86001  1.0000
  H   H2268     1.0  0.96230  0.38245  0.57458  1.0000
  C   C1281     1.0  0.95882  0.46530  0.60642  1.0000
  H   H2269     1.0  0.81819  0.43639  0.65420  1.0000
  H   H2270     1.0  0.90100  0.47551  0.75824  1.0000
  C   C1282     1.0  0.95919  0.45984  0.68973  1.0000
  H   H2271     1.0  0.79924  0.46205  0.66909  1.0000
  H   H2272     1.0  0.56417  0.26263  0.88592  1.0000
  H   H2273     1.0  0.97291  0.30088  0.67294  1.0000
  C   C1283     1.0  0.50775  0.41392  0.94193  1.0000
  H   H2274     1.0  0.56280  0.48433  0.94166  1.0000
  H   H2275     1.0  0.53294  0.24808  0.86345  1.0000
  H   H2276     1.0  0.53960  0.42914  0.84576  1.0000
  H   H2277     1.0  0.98186  0.47232  0.70969  1.0000
  C   C1284     1.0  0.52951  0.43207  0.86363  1.0000
  H   H2278     1.0  0.92450  0.43192  0.78936  1.0000
  H   H2279     1.0  0.96959  0.31770  0.56198  1.0000
  H   H2280     1.0  0.69420  0.47641  0.89053  1.0000
  H   H2281     1.0  0.91015  0.45557  0.77828  1.0000
  H   H2282     1.0  0.85650  0.47489  0.49310  1.0000
  H   H2283     1.0  0.96886  0.36807  0.49453  1.0000
  H   H2284     1.0  0.77641  0.24961  0.75127  1.0000
  C   C1285     1.0  0.77937  0.46589  0.67618  1.0000
  H   H2285     1.0  0.96869  0.31672  0.68679  1.0000
  C   C1286     1.0  0.49847  0.31751  0.84948  1.0000
  H   H2286     1.0  0.91619  0.48206  0.78356  1.0000
  H   H2287     1.0  0.70227  0.23759  0.78721  1.0000
  H   H2288     1.0  0.73044  0.47833  0.67133  1.0000
  C   C1287     1.0  0.95004  0.46306  0.77132  1.0000
  H   H2289     1.0  0.77281  0.47893  0.64247  1.0000
  H   H2290     1.0  0.99325  0.34880  0.51912  1.0000
  C   C1288     1.0  0.87932  0.48390  0.56722  1.0000
  S   S285      1.0  0.60184  0.37910  0.97472  1.0000
  H   H2291     1.0  0.56225  0.25119  0.75411  1.0000
  H   H2292     1.0  0.66587  0.46372  0.95315  1.0000
  S   S286      1.0  0.55767  0.41257  0.95935  1.0000
  C   C1289     1.0  0.62923  0.44717  0.97021  1.0000
  H   H2293     1.0  0.62237  0.47611  0.95411  1.0000
  H   H2294     1.0  0.50226  0.42022  0.95698  1.0000
  H   H2295     1.0  0.50701  0.25327  0.79318  1.0000
  C   C1290     1.0  0.91716  0.48177  0.76261  1.0000
  C   C1291     1.0  0.99349  0.48007  0.76012  1.0000
  S   S287      1.0  0.63139  0.40750  0.97068  1.0000
  C   C1292     1.0  0.49973  0.43049  0.86337  1.0000
  C   C1293     1.0  0.96438  0.48567  0.75599  1.0000
  C   C1294     1.0  0.49997  0.25116  0.81313  1.0000
  C   C1295     1.0  0.99648  0.40291  0.52393  1.0000
  H   H2296     1.0  0.60876  0.44459  0.97626  1.0000
  H   H2297     1.0  0.99649  0.32691  0.65038  1.0000
  H   H2298     1.0  0.74758  0.48628  0.69363  1.0000
  C   C1296     1.0  0.74528  0.48583  0.67302  1.0000
  Fe  Fe145     1.0  0.57416  0.56926  0.01410  1.0000
  S   S288      1.0  0.53710  0.57699  0.99440  1.0000
  Fe  Fe146     1.0  0.59682  0.54547  0.04769  1.0000
  S   S289      1.0  0.63787  0.55261  0.04347  1.0000
  S   S290      1.0  0.58330  0.52604  0.06709  1.0000
  Fe  Fe147     1.0  0.61782  0.57313  0.04958  1.0000
  S   S291      1.0  0.63342  0.58446  0.08074  1.0000
  S   S292      1.0  0.57714  0.56543  0.05612  1.0000
  S   S293      1.0  0.58994  0.54862  0.00632  1.0000
  Fe  Fe148     1.0  0.94167  0.54632  0.41104  1.0000
  S   S294      1.0  0.93158  0.56067  0.44023  1.0000
  S   S295      1.0  0.98072  0.54707  0.38943  1.0000
  Fe  Fe149     1.0  0.88871  0.53409  0.41799  1.0000
  S   S296      1.0  0.87382  0.54792  0.44753  1.0000
  S   S297      1.0  0.86832  0.51540  0.41201  1.0000
  Fe  Fe150     1.0  0.89252  0.56413  0.42131  1.0000
  S   S298      1.0  0.87786  0.58625  0.41512  1.0000
  H   H2299     1.0  0.52817  0.59642  0.03078  1.0000
  S   S299      1.0  0.90380  0.55059  0.39053  1.0000
  S   S300      1.0  0.92780  0.52872  0.43562  1.0000
  Fe  Fe151     1.0  0.59395  0.65764  0.18998  1.0000
  S   S301      1.0  0.59055  0.66884  0.15190  1.0000
  S   S302      1.0  0.55910  0.65025  0.21465  1.0000
  Fe  Fe152     1.0  0.65523  0.65966  0.18950  1.0000
  S   S303      1.0  0.65534  0.67090  0.15056  1.0000
  S   S304      1.0  0.68848  0.65509  0.21800  1.0000
  Fe  Fe153     1.0  0.61891  0.68280  0.16501  1.0000
  S   S305      1.0  0.60543  0.70506  0.16560  1.0000
  Fe  Fe154     1.0  0.62682  0.65574  0.14114  1.0000
  S   S306      1.0  0.62347  0.64628  0.10390  1.0000
  S   S307      1.0  0.62006  0.67221  0.20403  1.0000
  S   S308      1.0  0.62901  0.64385  0.17907  1.0000
  Fe  Fe155     1.0  0.90008  0.66303  0.26799  1.0000
  S   S309      1.0  0.89138  0.65914  0.30961  1.0000
  S   S310      1.0  0.94184  0.66544  0.25092  1.0000
  Fe  Fe156     1.0  0.84005  0.66292  0.25529  1.0000
  S   S311      1.0  0.82807  0.65905  0.29628  1.0000
  S   S312      1.0  0.81146  0.66569  0.22258  1.0000
  Fe  Fe157     1.0  0.85686  0.67451  0.30238  1.0000
  S   S313      1.0  0.84555  0.69186  0.32617  1.0000
  Fe  Fe158     1.0  0.86387  0.64408  0.29905  1.0000
  S   S314      1.0  0.86598  0.62139  0.30919  1.0000
  S   S315      1.0  0.86701  0.67913  0.26123  1.0000
  S   S316      1.0  0.87439  0.64730  0.25743  1.0000
  H   H2300     1.0  0.97852  0.55272  0.47135  1.0000
  C   C1297     1.0  0.51754  0.55453  0.01956  1.0000
  C   C1298     1.0  0.52350  0.60147  0.04829  1.0000
  C   C1299     1.0  0.85686  0.70786  0.31615  1.0000
  C   C1300     1.0  0.87421  0.70967  0.29510  1.0000
  C   C1301     1.0  0.88360  0.72234  0.28783  1.0000
  H   H2301     1.0  0.96731  0.72349  0.34473  1.0000
  C   C1302     1.0  0.52018  0.62200  0.17822  1.0000
  C   C1303     1.0  0.84883  0.71894  0.32977  1.0000
  H   H2302     1.0  0.88085  0.70126  0.28465  1.0000
  H   H2303     1.0  0.89704  0.72362  0.27151  1.0000
  H   H2304     1.0  0.84716  0.63002  0.18602  1.0000
  H   H2305     1.0  0.83548  0.71762  0.34617  1.0000
  C   C1304     1.0  0.62542  0.71892  0.16271  1.0000
  C   C1305     1.0  0.63877  0.72271  0.13982  1.0000
  H   H2306     1.0  0.90420  0.67467  0.35529  1.0000
  C   C1306     1.0  0.62343  0.72778  0.18177  1.0000
  H   H2307     1.0  0.63998  0.71612  0.12477  1.0000
  H   H2308     1.0  0.51813  0.55147  0.09003  1.0000
  H   H2309     1.0  0.61311  0.72499  0.19953  1.0000
  C   C1307     1.0  0.72256  0.65839  0.21865  1.0000
  C   C1308     1.0  0.73728  0.66289  0.19700  1.0000
  C   C1309     1.0  0.76443  0.66502  0.19856  1.0000
  C   C1310     1.0  0.77720  0.66277  0.22173  1.0000
  C   C1311     1.0  0.76238  0.65845  0.24343  1.0000
  C   C1312     1.0  0.73531  0.65621  0.24185  1.0000
  H   H2310     1.0  0.72786  0.66458  0.17900  1.0000
  H   H2311     1.0  0.77565  0.66840  0.18163  1.0000
  H   H2312     1.0  0.77175  0.65692  0.26145  1.0000
  H   H2313     1.0  0.72411  0.65280  0.25876  1.0000
  C   C1313     1.0  0.87522  0.59588  0.38544  1.0000
  C   C1314     1.0  0.87005  0.60990  0.38481  1.0000
  C   C1315     1.0  0.86739  0.61791  0.36166  1.0000
  C   C1316     1.0  0.86958  0.61193  0.33888  1.0000
  C   C1317     1.0  0.87473  0.59792  0.33947  1.0000
  C   C1318     1.0  0.87772  0.58993  0.36260  1.0000
  H   H2314     1.0  0.86792  0.61457  0.40240  1.0000
  H   H2315     1.0  0.86322  0.62866  0.36149  1.0000
  H   H2316     1.0  0.87637  0.59319  0.32195  1.0000
  H   H2317     1.0  0.88149  0.57916  0.36281  1.0000
  C   C1319     1.0  0.87040  0.50884  0.38232  1.0000
  C   C1320     1.0  0.87674  0.51678  0.36010  1.0000
  C   C1321     1.0  0.87698  0.51139  0.33660  1.0000
  C   C1322     1.0  0.87120  0.49801  0.33525  1.0000
  H   H2318     1.0  0.54000  0.53023  0.98426  1.0000
  H   H2319     1.0  0.97232  0.58185  0.45306  1.0000
  H   H2320     1.0  0.88082  0.52716  0.36098  1.0000
  H   H2321     1.0  0.88143  0.51763  0.31942  1.0000
  H   H2322     1.0  0.84444  0.57434  0.25545  1.0000
  C   C1323     1.0  0.68204  0.50308  0.98122  1.0000
  C   C1324     1.0  0.62579  0.62898  0.09817  1.0000
  C   C1325     1.0  0.63745  0.61895  0.11512  1.0000
  C   C1326     1.0  0.63965  0.60543  0.10939  1.0000
  C   C1327     1.0  0.62993  0.60170  0.08685  1.0000
  C   C1328     1.0  0.61774  0.61168  0.07015  1.0000
  C   C1329     1.0  0.61588  0.62524  0.07573  1.0000
  H   H2323     1.0  0.64535  0.62166  0.13236  1.0000
  H   H2324     1.0  0.64915  0.59780  0.12243  1.0000
  H   H2325     1.0  0.61024  0.60901  0.05272  1.0000
  H   H2326     1.0  0.60691  0.63291  0.06242  1.0000
  C   C1330     1.0  0.60714  0.51648  0.08540  1.0000
  C   C1331     1.0  0.60244  0.50328  0.09455  1.0000
  H   H2327     1.0  0.96109  0.60656  0.44690  1.0000
  C   C1332     1.0  0.64616  0.50021  0.11198  1.0000
  C   C1333     1.0  0.65063  0.51351  0.10331  1.0000
  C   C1334     1.0  0.63107  0.52166  0.09017  1.0000
  H   H2328     1.0  0.52344  0.69847  0.20209  1.0000
  C   C1335     1.0  0.83998  0.58307  0.26674  1.0000
  H   H2329     1.0  0.66931  0.51749  0.10662  1.0000
  H   H2330     1.0  0.63464  0.53192  0.08370  1.0000
  H   H2331     1.0  0.94440  0.51365  0.33356  1.0000
  C   C1336     1.0  0.97197  0.66395  0.26716  1.0000
  H   H2332     1.0  0.53574  0.65353  0.13152  1.0000
  H   H2333     1.0  0.95443  0.65871  0.30396  1.0000
  H   H2334     1.0  0.76397  0.62992  0.21753  1.0000
  H   H2335     1.0  0.83342  0.57928  0.28619  1.0000
  H   H2336     1.0  0.71062  0.51589  0.05029  1.0000
  C   C1337     1.0  0.52403  0.65208  0.21271  1.0000
  C   C1338     1.0  0.95673  0.72797  0.32786  1.0000
  C   C1339     1.0  0.68418  0.49318  0.00551  1.0000
  S   S317      1.0  0.67169  0.48990  0.12654  1.0000
  H   H2337     1.0  0.51612  0.49028  0.11931  1.0000
  H   H2338     1.0  0.72061  0.62429  0.20435  1.0000
  H   H2339     1.0  0.94931  0.68983  0.28379  1.0000
  H   H2340     1.0  0.78225  0.70170  0.25176  1.0000
  C   C1340     1.0  0.70351  0.53303  0.02354  1.0000
  C   C1341     1.0  0.53828  0.50346  0.13944  1.0000
  H   H2341     1.0  0.52820  0.71710  0.16902  1.0000
  H   H2342     1.0  0.98358  0.53075  0.43761  1.0000
  H   H2343     1.0  0.94416  0.59741  0.42570  1.0000
  H   H2344     1.0  0.95432  0.53049  0.35985  1.0000
  H   H2345     1.0  0.52380  0.53006  0.13546  1.0000
  N   N71       1.0  0.56188  0.61364  0.15149  1.0000
  C   C1342     1.0  0.56385  0.62830  0.14239  1.0000
  C   C1343     1.0  0.58412  0.60926  0.16913  1.0000
  C   C1344     1.0  0.56621  0.60563  0.12874  1.0000
  C   C1345     1.0  0.53522  0.61070  0.16404  1.0000
  H   H2346     1.0  0.86106  0.71557  0.23886  1.0000
  H   H2347     1.0  0.58977  0.50053  0.04174  1.0000
  C   C1346     1.0  0.56974  0.59013  0.13440  1.0000
  C   C1347     1.0  0.58375  0.61621  0.19389  1.0000
  C   C1348     1.0  0.60857  0.61182  0.20875  1.0000
  H   H2348     1.0  0.53268  0.59526  0.06444  1.0000
  H   H2349     1.0  0.92954  0.52084  0.37673  1.0000
  C   C1349     1.0  0.56457  0.58295  0.11122  1.0000
  H   H2350     1.0  0.58476  0.63021  0.13657  1.0000
  H   H2351     1.0  0.55901  0.63490  0.15784  1.0000
  H   H2352     1.0  0.58414  0.59836  0.17533  1.0000
  H   H2353     1.0  0.60362  0.61070  0.15894  1.0000
  H   H2354     1.0  0.58402  0.60877  0.11729  1.0000
  H   H2355     1.0  0.54936  0.60781  0.11589  1.0000
  C   C1350     1.0  0.86488  0.49543  0.38095  1.0000
  H   H2356     1.0  0.66361  0.51665  0.04790  1.0000
  H   H2357     1.0  0.63727  0.49764  0.05383  1.0000
  C   C1351     1.0  0.59619  0.49732  0.02286  1.0000
  C   C1352     1.0  0.82253  0.72490  0.25022  1.0000
  H   H2358     1.0  0.82964  0.60833  0.27640  1.0000
  H   H2359     1.0  0.55610  0.58648  0.15004  1.0000
  H   H2360     1.0  0.59049  0.58716  0.13978  1.0000
  H   H2361     1.0  0.58298  0.62726  0.19007  1.0000
  H   H2362     1.0  0.56649  0.61336  0.20631  1.0000
  H   H2363     1.0  0.62677  0.61420  0.19723  1.0000
  H   H2364     1.0  0.60812  0.61727  0.22604  1.0000
  H   H2365     1.0  0.60940  0.60086  0.21454  1.0000
  N   N72       1.0  0.50142  0.51067  0.10743  1.0000
  H   H2366     1.0  0.91200  0.62077  0.26334  1.0000
  H   H2367     1.0  0.62908  0.49806  0.99649  1.0000
  H   H2368     1.0  0.50613  0.72570  0.14590  1.0000
  C   C1353     1.0  0.77909  0.63497  0.31966  1.0000
  H   H2369     1.0  0.79782  0.63579  0.23782  1.0000
  C   C1354     1.0  0.80354  0.51597  0.29435  1.0000
  H   H2370     1.0  0.57049  0.57206  0.11483  1.0000
  H   H2371     1.0  0.51738  0.51375  0.05517  1.0000
  H   H2372     1.0  0.78229  0.60551  0.22714  1.0000
  H   H2373     1.0  0.84302  0.61512  0.22500  1.0000
  H   H2374     1.0  0.51726  0.70209  0.13781  1.0000
  H   H2375     1.0  0.69828  0.49663  0.23698  1.0000
  C   C1355     1.0  0.51259  0.56573  0.00222  1.0000
  C   C1356     1.0  0.91177  0.68481  0.35438  1.0000
  H   H2376     1.0  0.82547  0.62969  0.25520  1.0000
  C   C1357     1.0  0.70295  0.51795  0.03093  1.0000
  H   H2377     1.0  0.69873  0.70874  0.15715  1.0000
  H   H2378     1.0  0.85476  0.50234  0.46023  1.0000
  C   C1358     1.0  0.64438  0.49491  0.03472  1.0000
  H   H2379     1.0  0.95146  0.62908  0.37937  1.0000
  H   H2380     1.0  0.81233  0.63261  0.29368  1.0000
  H   H2381     1.0  0.95140  0.69266  0.23413  1.0000
  C   C1359     1.0  0.62187  0.49517  0.10791  1.0000
  H   H2382     1.0  0.90072  0.50212  0.46385  1.0000
  C   C1360     1.0  0.97163  0.70371  0.26000  1.0000
  H   H2383     1.0  0.57375  0.73211  0.23326  1.0000
  H   H2384     1.0  0.53905  0.49966  0.10074  1.0000
  C   C1361     1.0  0.95565  0.50993  0.35061  1.0000
  H   H2385     1.0  0.49959  0.52952  0.08356  1.0000
  C   C1362     1.0  0.94622  0.49617  0.36172  1.0000
  H   H2386     1.0  0.80407  0.61750  0.31209  1.0000
  H   H2387     1.0  0.84793  0.63960  0.21293  1.0000
  C   C1363     1.0  0.82140  0.52286  0.47467  1.0000
  C   C1364     1.0  0.94230  0.62805  0.28540  1.0000
  H   H2388     1.0  0.76819  0.63274  0.27179  1.0000
  H   H2389     1.0  0.67254  0.69818  0.15280  1.0000
  H   H2390     1.0  0.57438  0.52426  0.97973  1.0000
  H   H2391     1.0  0.80517  0.51035  0.25636  1.0000
  H   H2392     1.0  0.94203  0.71047  0.23214  1.0000
  H   H2393     1.0  0.79014  0.51568  0.31152  1.0000
  H   H2394     1.0  0.98403  0.72173  0.29788  1.0000
  H   H2395     1.0  0.82294  0.51065  0.29923  1.0000
  C   C1365     1.0  0.54636  0.73232  0.14209  1.0000
  C   C1366     1.0  0.79569  0.62671  0.30113  1.0000
  H   H2396     1.0  0.72291  0.60863  0.22407  1.0000
  H   H2397     1.0  0.95824  0.49661  0.31134  1.0000
  H   H2398     1.0  0.92597  0.49128  0.31942  1.0000
  C   C1367     1.0  0.54674  0.63358  0.11955  1.0000
  H   H2399     1.0  0.65404  0.66997  0.25337  1.0000
  N   N73       1.0  0.95286  0.61812  0.33125  1.0000
  H   H2400     1.0  0.99520  0.48784  0.33366  1.0000
  N   N74       1.0  0.95978  0.70488  0.30783  1.0000
  C   C1368     1.0  0.93764  0.70186  0.32707  1.0000
  C   C1369     1.0  0.96337  0.71985  0.30460  1.0000
  C   C1370     1.0  0.95181  0.70080  0.28275  1.0000
  C   C1371     1.0  0.98183  0.62080  0.32796  1.0000
  C   C1372     1.0  0.97268  0.66043  0.29322  1.0000
  H   H2401     1.0  0.68253  0.49585  0.06963  1.0000
  H   H2402     1.0  0.91947  0.62295  0.37759  1.0000
  C   C1373     1.0  0.52347  0.50051  0.11599  1.0000
  H   H2403     1.0  0.94579  0.61627  0.25275  1.0000
  H   H2404     1.0  0.93236  0.65257  0.36874  1.0000
  H   H2405     1.0  0.95155  0.49106  0.26725  1.0000
  C   C1374     1.0  0.95882  0.70274  0.23484  1.0000
  H   H2406     1.0  0.91937  0.70820  0.32182  1.0000
  H   H2407     1.0  0.94211  0.70479  0.34592  1.0000
  H   H2408     1.0  0.66405  0.51902  0.01482  1.0000
  H   H2409     1.0  0.52779  0.55412  0.12134  1.0000
  H   H2410     1.0  0.93204  0.70577  0.27790  1.0000
  H   H2411     1.0  0.97224  0.60653  0.41399  1.0000
  C   C1375     1.0  0.51063  0.65501  0.19000  1.0000
  C   C1376     1.0  0.68851  0.49130  0.05169  1.0000
  H   H2412     1.0  0.92283  0.68554  0.37170  1.0000
  Fe  Fe159     1.0  0.91409  0.54335  0.46370  1.0000
  C   C1377     1.0  0.51346  0.53445  0.11840  1.0000
  H   H2413     1.0  0.91632  0.64445  0.39646  1.0000
  H   H2414     1.0  0.53224  0.52262  0.08965  1.0000
  C   C1378     1.0  0.75106  0.49335  0.25121  1.0000
  H   H2415     1.0  0.71508  0.72977  0.22378  1.0000
  H   H2416     1.0  0.54891  0.54357  0.10209  1.0000
  H   H2417     1.0  0.52626  0.63034  0.12233  1.0000
  H   H2418     1.0  0.97900  0.71387  0.25934  1.0000
  H   H2419     1.0  0.89449  0.69234  0.35394  1.0000
  H   H2420     1.0  0.95538  0.58964  0.32322  1.0000
  H   H2421     1.0  0.98941  0.63214  0.35971  1.0000
  H   H2422     1.0  0.97715  0.50918  0.34537  1.0000
  C   C1379     1.0  0.78571  0.49472  0.28154  1.0000
  H   H2423     1.0  0.73685  0.68292  0.26077  1.0000
  H   H2424     1.0  0.98441  0.59309  0.33938  1.0000
  H   H2425     1.0  0.77024  0.49525  0.29704  1.0000
  H   H2426     1.0  0.52195  0.65696  0.17253  1.0000
  H   H2427     1.0  0.53288  0.62626  0.19133  1.0000
  C   C1380     1.0  0.86548  0.48999  0.35751  1.0000
  H   H2428     1.0  0.95611  0.60776  0.29705  1.0000
  H   H2429     1.0  0.53016  0.71326  0.11233  1.0000
  S   S318      1.0  0.61315  0.57855  0.00768  1.0000
  H   H2430     1.0  0.56566  0.65242  0.11169  1.0000
  H   H2431     1.0  0.70499  0.69059  0.16034  1.0000
  H   H2432     1.0  0.58407  0.49920  0.09081  1.0000
  H   H2433     1.0  0.52121  0.60818  0.14993  1.0000
  H   H2434     1.0  0.52452  0.50626  0.15518  1.0000
  C   C1381     1.0  0.85830  0.73167  0.32250  1.0000
  H   H2435     1.0  0.76306  0.61684  0.28833  1.0000
  H   H2436     1.0  0.51917  0.64723  0.25284  1.0000
  H   H2437     1.0  0.83450  0.70446  0.24225  1.0000
  C   C1382     1.0  0.95730  0.58075  0.36118  1.0000
  C   C1383     1.0  0.77873  0.62319  0.27939  1.0000
  H   H2438     1.0  0.75451  0.50317  0.24040  1.0000
  H   H2439     1.0  0.80690  0.52662  0.28813  1.0000
  H   H2440     1.0  0.69120  0.53875  0.03724  1.0000
  C   C1384     1.0  0.54542  0.64888  0.11506  1.0000
  H   H2441     1.0  0.76630  0.69689  0.28220  1.0000
  H   H2442     1.0  0.92413  0.49737  0.36349  1.0000
  H   H2443     1.0  0.96527  0.58247  0.37959  1.0000
  H   H2444     1.0  0.83631  0.71655  0.21506  1.0000
  H   H2445     1.0  0.99551  0.66919  0.23334  1.0000
  H   H2446     1.0  0.78449  0.68444  0.26463  1.0000
  H   H2447     1.0  0.98324  0.58176  0.42085  1.0000
  H   H2448     1.0  0.53652  0.55271  0.02817  1.0000
  H   H2449     1.0  0.93568  0.57951  0.36381  1.0000
  C   C1385     1.0  0.98543  0.69695  0.31459  1.0000
  H   H2450     1.0  0.64863  0.69334  0.23201  1.0000
  H   H2451     1.0  0.96222  0.63180  0.28123  1.0000
  H   H2452     1.0  0.62488  0.67930  0.26469  1.0000
  N   N75       1.0  0.67288  0.49827  0.02999  1.0000
  H   H2453     1.0  0.95038  0.72496  0.28961  1.0000
  H   H2454     1.0  0.96711  0.57127  0.35494  1.0000
  Fe  Fe160     1.0  0.62926  0.55732  0.00225  1.0000
  C   C1386     1.0  0.83972  0.71481  0.23564  1.0000
  C   C1387     1.0  0.94836  0.60570  0.34890  1.0000
  C   C1388     1.0  0.93650  0.63012  0.34043  1.0000
  C   C1389     1.0  0.94327  0.61575  0.30562  1.0000
  H   H2455     1.0  0.55207  0.70477  0.13570  1.0000
  H   H2456     1.0  0.81292  0.61645  0.20757  1.0000
  C   C1390     1.0  0.73463  0.61619  0.21282  1.0000
  H   H2457     1.0  0.76107  0.60398  0.25426  1.0000
  C   C1391     1.0  0.87588  0.73335  0.30155  1.0000
  H   H2458     1.0  0.55148  0.51171  0.13408  1.0000
  H   H2459     1.0  0.70999  0.49285  0.04848  1.0000
  C   C1392     1.0  0.93263  0.63077  0.36947  1.0000
  C   C1393     1.0  0.93232  0.62428  0.26050  1.0000
  H   H2460     1.0  0.92673  0.60424  0.35085  1.0000
  H   H2461     1.0  0.52318  0.49610  0.06443  1.0000
  H   H2462     1.0  0.94477  0.63961  0.33217  1.0000
  H   H2463     1.0  0.91591  0.63050  0.33359  1.0000
  H   H2464     1.0  0.92296  0.61206  0.30766  1.0000
  C   C1394     1.0  0.50916  0.64956  0.23523  1.0000
  H   H2465     1.0  0.80099  0.60011  0.28778  1.0000
  H   H2466     1.0  0.51278  0.63033  0.16453  1.0000
  H   H2467     1.0  0.56991  0.72985  0.18457  1.0000
  H   H2468     1.0  0.98072  0.69623  0.35629  1.0000
  H   H2469     1.0  0.77110  0.64464  0.30993  1.0000
  H   H2470     1.0  0.69158  0.72739  0.20056  1.0000
  H   H2471     1.0  0.81825  0.64036  0.19502  1.0000
  H   H2472     1.0  0.92876  0.63642  0.29160  1.0000
  C   C1395     1.0  0.95049  0.52047  0.36947  1.0000
  H   H2473     1.0  0.69672  0.51077  0.98104  1.0000
  H   H2474     1.0  0.77259  0.51549  0.26829  1.0000
  H   H2475     1.0  0.71678  0.51259  0.01788  1.0000
  C   C1396     1.0  0.91953  0.64437  0.37566  1.0000
  C   C1397     1.0  0.75335  0.62225  0.22963  1.0000
  H   H2476     1.0  0.57635  0.58704  0.09449  1.0000
  H   H2477     1.0  0.93169  0.63324  0.24646  1.0000
  C   C1398     1.0  0.81831  0.59259  0.25433  1.0000
  C   C1399     1.0  0.82534  0.62178  0.21934  1.0000
  H   H2478     1.0  0.58205  0.50222  0.00888  1.0000
  C   C1400     1.0  0.81094  0.60465  0.27021  1.0000
  H   H2479     1.0  0.79172  0.63723  0.33505  1.0000
  H   H2480     1.0  0.98435  0.63021  0.31551  1.0000
  H   H2481     1.0  0.98901  0.69623  0.26128  1.0000
  C   C1401     1.0  0.52793  0.54664  0.10720  1.0000
  H   H2482     1.0  0.55569  0.62963  0.10200  1.0000
  N   N76       1.0  0.79356  0.61628  0.25829  1.0000
  H   H2483     1.0  0.52203  0.68314  0.22245  1.0000
  C   C1402     1.0  0.94746  0.48795  0.31996  1.0000
  H   H2484     1.0  0.95307  0.49445  0.38145  1.0000
  C   C1403     1.0  0.77302  0.61129  0.24241  1.0000
  H   H2485     1.0  0.80151  0.72363  0.24666  1.0000
  H   H2486     1.0  0.74594  0.61142  0.19723  1.0000
  H   H2487     1.0  0.69604  0.53570  0.00423  1.0000
  H   H2488     1.0  0.62348  0.51260  0.01452  1.0000
  H   H2489     1.0  0.75262  0.68817  0.23074  1.0000
  H   H2490     1.0  0.54320  0.58415  0.10703  1.0000
  H   H2491     1.0  0.79610  0.49609  0.22715  1.0000
  C   C1404     1.0  0.98216  0.58783  0.43718  1.0000
  H   H2492     1.0  0.53245  0.61131  0.04602  1.0000
  H   H2493     1.0  0.64863  0.69992  0.26229  1.0000
  H   H2494     1.0  0.56673  0.72720  0.14088  1.0000
  H   H2495     1.0  0.94739  0.67986  0.33289  1.0000
  H   H2496     1.0  0.96377  0.51825  0.38565  1.0000
  H   H2497     1.0  0.91877  0.68485  0.31429  1.0000
  C   C1405     1.0  0.96264  0.59236  0.34128  1.0000
  H   H2498     1.0  0.82581  0.72221  0.27065  1.0000
  C   C1406     1.0  0.67445  0.51322  0.03071  1.0000
  H   H2499     1.0  0.82487  0.52324  0.45382  1.0000
  H   H2500     1.0  0.85845  0.58830  0.26771  1.0000
  H   H2501     1.0  0.74075  0.62732  0.24403  1.0000
  H   H2502     1.0  0.82539  0.59575  0.23488  1.0000
  H   H2503     1.0  0.76241  0.62928  0.32825  1.0000
  H   H2504     1.0  0.89995  0.64626  0.36684  1.0000
  H   H2505     1.0  0.97367  0.70437  0.21902  1.0000
  H   H2506     1.0  0.95429  0.60686  0.36833  1.0000
  H   H2507     1.0  0.53737  0.60154  0.17760  1.0000
  C   C1407     1.0  0.71263  0.49334  0.22195  1.0000
  C   C1408     1.0  0.79134  0.50951  0.27312  1.0000
  H   H2508     1.0  0.72416  0.53603  0.02367  1.0000
  H   H2509     1.0  0.56805  0.49387  0.16475  1.0000
  H   H2510     1.0  0.80063  0.58679  0.25304  1.0000
  C   C1409     1.0  0.83526  0.63369  0.20238  1.0000
  H   H2511     1.0  0.93506  0.72832  0.33255  1.0000
  N   N77       1.0  0.70078  0.70273  0.23510  1.0000
  C   C1410     1.0  0.68411  0.71578  0.23706  1.0000
  C   C1411     1.0  0.68767  0.69117  0.24996  1.0000
  C   C1412     1.0  0.72695  0.70418  0.24691  1.0000
  C   C1413     1.0  0.70652  0.69984  0.20798  1.0000
  C   C1414     1.0  0.68220  0.69873  0.19197  1.0000
  H   H2512     1.0  0.53379  0.65224  0.09812  1.0000
  C   C1415     1.0  0.74619  0.69134  0.24960  1.0000
  C   C1416     1.0  0.65690  0.69167  0.25105  1.0000
  C   C1417     1.0  0.64691  0.67863  0.26402  1.0000
  C   C1418     1.0  0.69026  0.69907  0.16388  1.0000
  C   C1419     1.0  0.81013  0.62641  0.24330  1.0000
  C   C1420     1.0  0.77126  0.69383  0.26290  1.0000
  H   H2513     1.0  0.68187  0.71802  0.25723  1.0000
  H   H2514     1.0  0.66360  0.71509  0.23107  1.0000
  H   H2515     1.0  0.69520  0.68144  0.24278  1.0000
  H   H2516     1.0  0.69311  0.69037  0.27017  1.0000
  H   H2517     1.0  0.72338  0.70771  0.26614  1.0000
  H   H2518     1.0  0.73833  0.71189  0.23572  1.0000
  H   H2519     1.0  0.71911  0.70752  0.19812  1.0000
  H   H2520     1.0  0.71846  0.69012  0.20701  1.0000
  H   H2521     1.0  0.66686  0.70704  0.19420  1.0000
  H   H2522     1.0  0.67338  0.68902  0.19751  1.0000
  C   C1421     1.0  0.92984  0.68712  0.33075  1.0000
  H   H2523     1.0  0.65379  0.67680  0.28367  1.0000
  C   C1422     1.0  0.53188  0.70971  0.13267  1.0000
  H   H2524     1.0  0.71915  0.50229  0.21000  1.0000
  H   H2525     1.0  0.94985  0.49973  0.46023  1.0000
  C   C1423     1.0  0.62416  0.50148  0.01547  1.0000
  C   C1424     1.0  0.55579  0.49117  0.14945  1.0000
  H   H2526     1.0  0.80351  0.48948  0.29071  1.0000
  H   H2527     1.0  0.73699  0.49590  0.26705  1.0000
  C   C1425     1.0  0.69402  0.72832  0.22098  1.0000
  C   C1426     1.0  0.99586  0.66642  0.25351  1.0000
  C   C1427     1.0  0.52663  0.72139  0.14916  1.0000
  C   C1428     1.0  0.64923  0.73541  0.13577  1.0000
  C   C1429     1.0  0.96390  0.60040  0.43054  1.0000
  C   C1430     1.0  0.51040  0.69251  0.21542  1.0000
  C   C1431     1.0  0.51206  0.52413  0.09860  1.0000
  H   H2528     1.0  0.50568  0.50027  0.02186  1.0000
  H   H2529     1.0  0.98387  0.68610  0.31274  1.0000
  H   H2530     1.0  0.53650  0.73157  0.19447  1.0000
  H   H2531     1.0  0.99073  0.54836  0.31608  1.0000
  S   S319      1.0  0.87121  0.49157  0.30554  1.0000
  H   H2532     1.0  0.84310  0.49141  0.21017  1.0000
  H   H2533     1.0  0.85984  0.48925  0.39804  1.0000
  H   H2534     1.0  0.50254  0.60875  0.20830  1.0000
  H   H2535     1.0  0.99389  0.61408  0.36694  1.0000
  H   H2536     1.0  0.50431  0.69826  0.23184  1.0000
  H   H2537     1.0  0.70572  0.49008  0.00689  1.0000
  H   H2538     1.0  0.99298  0.61279  0.31783  1.0000
  H   H2539     1.0  0.50158  0.53713  0.03971  1.0000
  C   C1432     1.0  0.99707  0.65911  0.30533  1.0000
  H   H2540     1.0  0.83370  0.49133  0.25681  1.0000
  C   C1433     1.0  0.50755  0.50438  0.06104  1.0000
  C   C1434     1.0  0.99653  0.62250  0.35220  1.0000
  N   N78       1.0  0.77685  0.48680  0.26111  1.0000
  C   C1435     1.0  0.99583  0.69843  0.34103  1.0000
  C   C1436     1.0  0.49770  0.54571  0.02619  1.0000
  H   H2541     1.0  0.66236  0.50851  0.97985  1.0000
  H   H2542     1.0  0.56932  0.48738  0.13426  1.0000
  H   H2543     1.0  0.70238  0.48709  0.20981  1.0000
  H   H2544     1.0  0.54173  0.73640  0.12249  1.0000
  Fe  Fe161     1.0  0.63829  0.50131  0.85948  1.0000
  S   S320      1.0  0.63475  0.51560  0.82426  1.0000
  S   S321      1.0  0.63332  0.50495  0.90152  1.0000
  Fe  Fe162     1.0  0.66461  0.50100  0.80535  1.0000
  S   S322      1.0  0.70050  0.50861  0.77994  1.0000
  Fe  Fe163     1.0  0.60214  0.50303  0.81374  1.0000
  S   S323      1.0  0.56104  0.51268  0.80197  1.0000
  C   C1437     1.0  0.88075  0.50074  0.75909  1.0000
  H   H2545     1.0  0.55328  0.54675  0.87145  1.0000
  C   C1438     1.0  0.90921  0.49628  0.75108  1.0000
  H   H2546     1.0  0.59325  0.58968  0.94961  1.0000
  C   C1439     1.0  0.84560  0.51612  0.48816  1.0000
  S   S324      1.0  0.92666  0.53670  0.50393  1.0000
  Fe  Fe164     1.0  0.86515  0.50528  0.63344  1.0000
  S   S325      1.0  0.86493  0.51362  0.67154  1.0000
  S   S326      1.0  0.85079  0.51704  0.59725  1.0000
  C   C1440     1.0  0.64797  0.53968  0.94881  1.0000
  H   H2547     1.0  0.55965  0.53261  0.89396  1.0000
  Fe  Fe165     1.0  0.90418  0.50115  0.67588  1.0000
  S   S327      1.0  0.94223  0.50846  0.69034  1.0000
  C   C1441     1.0  0.70772  0.50252  0.67178  1.0000
  H   H2548     1.0  0.86652  0.49413  0.75217  1.0000
  C   C1442     1.0  0.90520  0.53123  0.52955  1.0000
  C   C1443     1.0  0.87769  0.53378  0.52891  1.0000
  C   C1444     1.0  0.86134  0.52941  0.54981  1.0000
  C   C1445     1.0  0.87228  0.52246  0.57157  1.0000
  C   C1446     1.0  0.89983  0.51995  0.57224  1.0000
  C   C1447     1.0  0.91617  0.52432  0.55134  1.0000
  H   H2549     1.0  0.86903  0.53934  0.51250  1.0000
  H   H2550     1.0  0.84009  0.53152  0.54919  1.0000
  H   H2551     1.0  0.90854  0.51470  0.58891  1.0000
  H   H2552     1.0  0.93744  0.52239  0.55209  1.0000
  C   C1448     1.0  0.73078  0.50341  0.76288  1.0000
  C   C1449     1.0  0.74674  0.51329  0.75085  1.0000
  C   C1450     1.0  0.77030  0.50983  0.73659  1.0000
  H   H2553     1.0  0.92235  0.50362  0.75726  1.0000
  H   H2554     1.0  0.74075  0.52377  0.75250  1.0000
  H   H2555     1.0  0.78200  0.51765  0.72756  1.0000
  C   C1451     1.0  0.63833  0.51892  0.91846  1.0000
  C   C1452     1.0  0.65433  0.52916  0.90894  1.0000
  C   C1453     1.0  0.65931  0.53943  0.92418  1.0000
  H   H2556     1.0  0.71903  0.50183  0.58242  1.0000
  H   H2557     1.0  0.67163  0.48884  0.95545  1.0000
  C   C1454     1.0  0.62682  0.51928  0.94299  1.0000
  H   H2558     1.0  0.66348  0.52897  0.89016  1.0000
  H   H2559     1.0  0.67225  0.54714  0.91692  1.0000
  S   S328      1.0  0.63136  0.48992  0.79173  1.0000
  H   H2560     1.0  0.61465  0.51137  0.95070  1.0000
  C   C1455     1.0  0.99673  0.50850  0.69229  1.0000
  H   H2561     1.0  0.69972  0.51266  0.66409  1.0000
  H   H2562     1.0  0.69388  0.49529  0.66610  1.0000
  C   C1456     1.0  0.52636  0.51017  0.80035  1.0000
  N   N79       1.0  0.87476  0.49361  0.49378  1.0000
  C   C1457     1.0  0.77621  0.51351  0.64755  1.0000
  H   H2563     1.0  0.84861  0.49457  0.52737  1.0000
  C   C1458     1.0  0.97551  0.50274  0.68217  1.0000
  H   H2564     1.0  0.78815  0.50443  0.64234  1.0000
  C   C1459     1.0  0.56390  0.54678  0.94575  1.0000
  H   H2565     1.0  0.52063  0.56051  0.93118  1.0000
  H   H2566     1.0  0.87799  0.50295  0.52870  1.0000
  H   H2567     1.0  0.98440  0.55199  0.50455  1.0000
  C   C1460     1.0  0.53348  0.55791  0.91443  1.0000
  H   H2568     1.0  0.57112  0.49175  0.91027  1.0000
  C   C1461     1.0  0.51438  0.49825  0.80920  1.0000
  C   C1462     1.0  0.68729  0.49582  0.95730  1.0000
  H   H2569     1.0  0.58813  0.55899  0.88810  1.0000
  H   H2570     1.0  0.94913  0.51072  0.48542  1.0000
  H   H2571     1.0  0.68695  0.50328  0.94043  1.0000
  C   C1463     1.0  0.99417  0.55240  0.48537  1.0000
  H   H2572     1.0  0.58139  0.52913  0.85232  1.0000
  H   H2573     1.0  0.54845  0.51460  0.97057  1.0000
  S   S329      1.0  0.90520  0.49425  0.63701  1.0000
  H   H2574     1.0  0.95920  0.49160  0.77247  1.0000
  H   H2575     1.0  0.71969  0.50875  0.70799  1.0000
  C   C1464     1.0  0.52305  0.51301  0.86820  1.0000
  H   H2576     1.0  0.71300  0.51986  0.57991  1.0000
  H   H2577     1.0  0.96533  0.48813  0.65787  1.0000
  H   H2578     1.0  0.60864  0.58877  0.91823  1.0000
  C   C1465     1.0  0.98131  0.49240  0.66643  1.0000
  H   H2579     1.0  0.83315  0.49613  0.48524  1.0000
  H   H2580     1.0  0.67364  0.51856  0.70221  1.0000
  H   H2581     1.0  0.87844  0.50055  0.78000  1.0000
  H   H2582     1.0  0.76133  0.50765  0.68559  1.0000
  C   C1466     1.0  0.98311  0.53548  0.62192  1.0000
  H   H2583     1.0  0.89207  0.49197  0.57094  1.0000
  H   H2584     1.0  0.53513  0.53227  0.93764  1.0000
  H   H2585     1.0  0.96487  0.53060  0.65910  1.0000
  C   C1467     1.0  0.60744  0.58373  0.93773  1.0000
  C   C1468     1.0  0.59890  0.56945  0.93749  1.0000
  H   H2586     1.0  0.53783  0.51979  0.85924  1.0000
  H   H2587     1.0  0.67586  0.50726  0.73053  1.0000
  C   C1469     1.0  0.63144  0.52963  0.95798  1.0000
  H   H2588     1.0  0.55218  0.55154  0.96128  1.0000
  C   C1470     1.0  0.57072  0.56945  0.92714  1.0000
  C   C1471     1.0  0.89964  0.50035  0.48487  1.0000
  C   C1472     1.0  0.71844  0.51084  0.61825  1.0000
  C   C1473     1.0  0.73319  0.49852  0.63278  1.0000
  H   H2589     1.0  0.78402  0.53221  0.66284  1.0000
  H   H2590     1.0  0.80365  0.51753  0.67585  1.0000
  H   H2591     1.0  0.86248  0.52228  0.48232  1.0000
  C   C1474     1.0  0.51005  0.52101  0.78986  1.0000
  C   C1475     1.0  0.55448  0.52494  0.97156  1.0000
  C   C1476     1.0  0.56875  0.54119  0.88324  1.0000
  C   C1477     1.0  0.75287  0.51022  0.66665  1.0000
  C   C1478     1.0  0.55518  0.53235  0.94505  1.0000
  H   H2592     1.0  0.54281  0.56898  0.87741  1.0000
  H   H2593     1.0  0.74597  0.51242  0.58548  1.0000
  H   H2594     1.0  0.72382  0.52042  0.62482  1.0000
  H   H2595     1.0  0.91033  0.49699  0.73025  1.0000
  C   C1479     1.0  0.85158  0.50150  0.48111  1.0000
  C   C1480     1.0  0.87025  0.49380  0.52219  1.0000
  H   H2596     1.0  0.52623  0.57908  0.90033  1.0000
  H   H2597     1.0  0.59845  0.54513  0.90925  1.0000
  H   H2598     1.0  0.70822  0.49207  0.71025  1.0000
  H   H2599     1.0  0.70704  0.49018  0.95760  1.0000
  C   C1481     1.0  0.77862  0.49633  0.73405  1.0000
  H   H2600     1.0  0.52512  0.50362  0.85855  1.0000
  H   H2601     1.0  0.97583  0.53913  0.60293  1.0000
  H   H2602     1.0  0.57042  0.57655  0.90973  1.0000
  C   C1482     1.0  0.95887  0.53269  0.63922  1.0000
  H   H2603     1.0  0.59941  0.54386  0.85325  1.0000
  H   H2604     1.0  0.80351  0.51735  0.48023  1.0000
  S   S330      1.0  0.65565  0.55228  0.96806  1.0000
  C   C1483     1.0  0.58042  0.55058  0.90089  1.0000
  H   H2605     1.0  0.51877  0.53025  0.78290  1.0000
  H   H2606     1.0  0.61387  0.56380  0.92593  1.0000
  H   H2607     1.0  0.60582  0.52942  0.87571  1.0000
  H   H2608     1.0  0.66198  0.50184  0.70299  1.0000
  C   C1484     1.0  0.59018  0.53560  0.86509  1.0000
  H   H2609     1.0  0.55650  0.57408  0.94105  1.0000
  C   C1485     1.0  0.79483  0.52261  0.65838  1.0000
  H   H2610     1.0  0.59101  0.49440  0.93624  1.0000
  H   H2611     1.0  0.69667  0.51030  0.62144  1.0000
  H   H2612     1.0  0.87573  0.51116  0.75073  1.0000
  H   H2613     1.0  0.56968  0.52653  0.93329  1.0000
  H   H2614     1.0  0.99076  0.51547  0.61110  1.0000
  H   H2615     1.0  0.58467  0.54539  0.95182  1.0000
  H   H2616     1.0  0.62294  0.52960  0.97698  1.0000
  N   N80       1.0  0.73536  0.49940  0.66079  1.0000
  H   H2617     1.0  0.94883  0.52401  0.63359  1.0000
  H   H2618     1.0  0.74102  0.51995  0.66833  1.0000
  H   H2619     1.0  0.94447  0.54163  0.63815  1.0000
  H   H2620     1.0  0.62736  0.58334  0.94584  1.0000
  C   C1486     1.0  0.72454  0.51121  0.58978  1.0000
  H   H2621     1.0  0.75302  0.49685  0.62337  1.0000
  H   H2622     1.0  0.84148  0.51641  0.50876  1.0000
  H   H2623     1.0  0.52625  0.54846  0.90906  1.0000
  C   C1487     1.0  0.52724  0.56907  0.89280  1.0000
  H   H2624     1.0  0.81116  0.52491  0.64430  1.0000
  C   C1488     1.0  0.67741  0.50787  0.70955  1.0000
  Fe  Fe166     1.0  0.84424  0.49508  0.68722  1.0000
  H   H2625     1.0  0.52754  0.51059  0.88844  1.0000
  H   H2626     1.0  0.76867  0.51887  0.62981  1.0000
  H   H2627     1.0  0.99257  0.51663  0.70422  1.0000
  N   N81       1.0  0.56212  0.55594  0.92155  1.0000
  H   H2628     1.0  0.52660  0.48975  0.81731  1.0000
  H   H2629     1.0  0.96854  0.49489  0.48811  1.0000
  H   H2630     1.0  0.96424  0.49313  0.73902  1.0000
  S   S331      1.0  0.80789  0.49132  0.71531  1.0000
  H   H2631     1.0  0.72258  0.48953  0.62948  1.0000
  C   C1489     1.0  0.70508  0.50244  0.70100  1.0000
  S   S332      1.0  0.60465  0.48959  0.84956  1.0000
  H   H2632     1.0  0.92746  0.49366  0.51452  1.0000
  H   H2633     1.0  0.59922  0.56488  0.95730  1.0000
  S   S333      1.0  0.84266  0.48747  0.64858  1.0000
  C   C1490     1.0  0.94979  0.50008  0.48106  1.0000
  S   S334      1.0  0.66963  0.48740  0.84167  1.0000
  H   H2634     1.0  0.99298  0.54367  0.62947  1.0000
  H   H2635     1.0  0.89916  0.51056  0.49151  1.0000
  C   C1491     1.0  0.73913  0.48990  0.76036  1.0000
  C   C1492     1.0  0.92613  0.49317  0.49386  1.0000
  H   H2636     1.0  0.85848  0.48686  0.57305  1.0000
  C   C1493     1.0  0.57943  0.48699  0.92822  1.0000
  H   H2637     1.0  0.50091  0.55796  0.87255  1.0000
  C   C1494     1.0  0.50052  0.56755  0.88151  1.0000
  H   H2638     1.0  0.81774  0.53333  0.47991  1.0000
  Fe  Fe167     1.0  0.62726  0.80740  0.17538  1.0000
  S   S335      1.0  0.61886  0.80455  0.21761  1.0000
  S   S336      1.0  0.61161  0.82734  0.15467  1.0000
  Fe  Fe168     1.0  0.64340  0.77731  0.17330  1.0000
  S   S337      1.0  0.63573  0.77277  0.21483  1.0000
  S   S338      1.0  0.65641  0.76101  0.14746  1.0000
  Fe  Fe169     1.0  0.59837  0.78633  0.20954  1.0000
  S   S339      1.0  0.55918  0.77891  0.22656  1.0000
  Fe  Fe170     1.0  0.65725  0.79133  0.21884  1.0000
  S   S340      1.0  0.68643  0.78967  0.25120  1.0000
  S   S341      1.0  0.60495  0.78968  0.16763  1.0000
  S   S342      1.0  0.66689  0.79529  0.17707  1.0000
  Fe  Fe171     1.0  0.87711  0.76997  0.30145  1.0000
  S   S343      1.0  0.87850  0.78408  0.26596  1.0000
  Fe  Fe172     1.0  0.86577  0.79358  0.33435  1.0000
  S   S344      1.0  0.86607  0.80865  0.30063  1.0000
  S   S345      1.0  0.86272  0.80078  0.37393  1.0000
  Fe  Fe173     1.0  0.84172  0.79455  0.28252  1.0000
  S   S346      1.0  0.80811  0.80255  0.25645  1.0000
  Fe  Fe174     1.0  0.90251  0.79654  0.28783  1.0000
  S   S347      1.0  0.93912  0.80748  0.27477  1.0000
  S   S348      1.0  0.83914  0.77989  0.31714  1.0000
  S   S349      1.0  0.90330  0.78197  0.32227  1.0000
  Fe  Fe175     1.0  0.62285  0.91268  0.01365  1.0000
  S   S350      1.0  0.58063  0.91740  0.02633  1.0000
  N   N82       1.0  0.81005  0.75051  0.25072  1.0000
  Fe  Fe176     1.0  0.63071  0.89036  0.05758  1.0000
  S   S351      1.0  0.58933  0.89405  0.07310  1.0000
  S   S352      1.0  0.65720  0.87358  0.07758  1.0000
  Fe  Fe177     1.0  0.57844  0.89516  0.03272  1.0000
  S   S353      1.0  0.54355  0.88471  0.02226  1.0000
  Fe  Fe178     1.0  0.59589  0.91596  0.06541  1.0000
  S   S354      1.0  0.57837  0.93126  0.09131  1.0000
  S   S355      1.0  0.61947  0.89027  0.01692  1.0000
  S   S356      1.0  0.63851  0.91243  0.05276  1.0000
  S   S357      1.0  0.82050  0.92438  0.42244  1.0000
  S   S358      1.0  0.87666  0.89629  0.40467  1.0000
  C   C1495     1.0  0.73189  0.96846  0.24291  1.0000
  S   S359      1.0  0.65491  0.96069  0.15506  1.0000
  H   H2639     1.0  0.71689  0.96121  0.24930  1.0000
  H   H2640     1.0  0.76426  0.76890  0.24889  1.0000
  S   S360      1.0  0.86442  0.96194  0.33065  1.0000
  C   C1496     1.0  0.72896  0.96171  0.98339  1.0000
  H   H2641     1.0  0.56122  0.98318  0.11533  1.0000
  C   C1497     1.0  0.78503  0.85900  0.36826  1.0000
  C   C1498     1.0  0.96626  0.88853  0.46406  1.0000
  C   C1499     1.0  0.78805  0.75861  0.29233  1.0000
  C   C1500     1.0  0.83228  0.93482  0.39673  1.0000
  C   C1501     1.0  0.82759  0.94879  0.39648  1.0000
  C   C1502     1.0  0.83761  0.95725  0.37632  1.0000
  C   C1503     1.0  0.85154  0.95171  0.35603  1.0000
  C   C1504     1.0  0.85557  0.93776  0.35594  1.0000
  C   C1505     1.0  0.84634  0.92933  0.37646  1.0000
  H   H2642     1.0  0.81672  0.95306  0.41217  1.0000
  H   H2643     1.0  0.83456  0.96803  0.37654  1.0000
  H   H2644     1.0  0.86605  0.93347  0.34008  1.0000
  H   H2645     1.0  0.84942  0.91857  0.37626  1.0000
  C   C1506     1.0  0.59995  0.93979  0.10801  1.0000
  C   C1507     1.0  0.58939  0.94964  0.12342  1.0000
  C   C1508     1.0  0.60611  0.95625  0.13771  1.0000
  C   C1509     1.0  0.63348  0.95301  0.13667  1.0000
  C   C1510     1.0  0.64405  0.94328  0.12100  1.0000
  C   C1511     1.0  0.62734  0.93677  0.10654  1.0000
  H   H2646     1.0  0.56821  0.95206  0.12447  1.0000
  H   H2647     1.0  0.59775  0.96357  0.15004  1.0000
  H   H2648     1.0  0.66523  0.94079  0.12004  1.0000
  H   H2649     1.0  0.63563  0.92936  0.09441  1.0000
  C   C1512     1.0  0.86217  0.81802  0.37955  1.0000
  C   C1513     1.0  0.86320  0.82163  0.40442  1.0000
  H   H2650     1.0  0.75894  0.81819  0.28958  1.0000
  H   H2651     1.0  0.93070  0.83307  0.38240  1.0000
  C   C1514     1.0  0.86052  0.84175  0.36451  1.0000
  C   C1515     1.0  0.86085  0.82819  0.35968  1.0000
  H   H2652     1.0  0.70650  0.83596  0.28760  1.0000
  H   H2653     1.0  0.94620  0.93777  0.41476  1.0000
  H   H2654     1.0  0.85960  0.84950  0.34889  1.0000
  H   H2655     1.0  0.86048  0.82562  0.34051  1.0000
  C   C1516     1.0  0.62570  0.84043  0.13487  1.0000
  C   C1517     1.0  0.60883  0.85149  0.12601  1.0000
  C   C1518     1.0  0.61829  0.86174  0.10878  1.0000
  C   C1519     1.0  0.64484  0.86111  0.10017  1.0000
  C   C1520     1.0  0.66191  0.85019  0.10944  1.0000
  C   C1521     1.0  0.65240  0.83986  0.12667  1.0000
  H   H2656     1.0  0.58813  0.85200  0.13216  1.0000
  H   H2657     1.0  0.60483  0.86993  0.10176  1.0000
  H   H2658     1.0  0.68251  0.84960  0.10298  1.0000
  H   H2659     1.0  0.66562  0.83140  0.13331  1.0000
  C   C1522     1.0  0.72054  0.79293  0.25189  1.0000
  C   C1523     1.0  0.73397  0.78971  0.27457  1.0000
  C   C1524     1.0  0.76087  0.79228  0.27619  1.0000
  C   C1525     1.0  0.77471  0.79821  0.25515  1.0000
  C   C1526     1.0  0.76126  0.80148  0.23254  1.0000
  C   C1527     1.0  0.73445  0.79877  0.23082  1.0000
  H   H2660     1.0  0.72338  0.78530  0.29105  1.0000
  H   H2661     1.0  0.77061  0.79006  0.29394  1.0000
  H   H2662     1.0  0.77161  0.80620  0.21620  1.0000
  H   H2663     1.0  0.72443  0.80137  0.21330  1.0000
  H   H2664     1.0  0.55472  0.82640  0.08393  1.0000
  H   H2665     1.0  0.93528  0.76988  0.40102  1.0000
  C   C1528     1.0  0.71829  0.82615  0.28973  1.0000
  H   H2666     1.0  0.71310  0.82072  0.30829  1.0000
  H   H2667     1.0  0.68245  0.74342  0.24717  1.0000
  C   C1529     1.0  0.51494  0.89230  0.03608  1.0000
  C   C1530     1.0  0.51694  0.90180  0.05340  1.0000
  H   H2668     1.0  0.62299  0.80352  0.03889  1.0000
  H   H2669     1.0  0.53612  0.90450  0.05839  1.0000
  C   C1531     1.0  0.97153  0.80016  0.28033  1.0000
  H   H2670     1.0  0.82478  0.95686  0.26642  1.0000
  H   H2671     1.0  0.95638  0.92394  0.38243  1.0000
  H   H2672     1.0  0.74016  0.97450  0.36656  1.0000
  H   H2673     1.0  0.95946  0.78042  0.29278  1.0000
  H   H2674     1.0  0.75245  0.83276  0.26804  1.0000
  C   C1532     1.0  0.52185  0.79469  0.19786  1.0000
  C   C1533     1.0  0.52682  0.78360  0.21543  1.0000
  H   H2675     1.0  0.73267  0.97656  0.27871  1.0000
  H   H2676     1.0  0.53803  0.80062  0.19078  1.0000
  C   C1534     1.0  0.93047  0.92718  0.35067  1.0000
  H   H2677     1.0  0.60865  0.86400  0.04745  1.0000
  H   H2678     1.0  0.71300  0.82002  0.27460  1.0000
  H   H2679     1.0  0.58773  0.74673  0.15202  1.0000
  N   N83       1.0  0.54613  0.74349  0.15932  1.0000
  C   C1535     1.0  0.82199  0.76377  0.24363  1.0000
  H   H2680     1.0  0.91506  0.95214  0.35309  1.0000
  H   H2681     1.0  0.54665  0.76216  0.11670  1.0000
  S   S361      1.0  0.62897  0.98101  0.21268  1.0000
  H   H2682     1.0  0.86366  0.83792  0.42851  1.0000
  C   C1536     1.0  0.64592  0.74455  0.15433  1.0000
  H   H2683     1.0  0.65642  0.74000  0.22715  1.0000
  C   C1537     1.0  0.93094  0.96643  0.31186  1.0000
  C   C1538     1.0  0.93183  0.77722  0.38429  1.0000
  C   C1539     1.0  0.91990  0.83596  0.31404  1.0000
  C   C1540     1.0  0.83269  0.78134  0.20732  1.0000
  H   H2684     1.0  0.91973  0.83243  0.42745  1.0000
  H   H2685     1.0  0.51206  0.86057  0.04441  1.0000
  H   H2686     1.0  0.80823  0.77233  0.24867  1.0000
  H   H2687     1.0  0.94736  0.79286  0.40262  1.0000
  H   H2688     1.0  0.57553  0.78766  0.02787  1.0000
  C   C1541     1.0  0.93462  0.95555  0.35714  1.0000
  C   C1542     1.0  0.67801  0.74111  0.22785  1.0000
  H   H2689     1.0  0.91357  0.82536  0.35037  1.0000
  H   H2690     1.0  0.99070  0.79793  0.33848  1.0000
  H   H2691     1.0  0.93122  0.83471  0.29589  1.0000
  H   H2692     1.0  0.73964  0.75388  0.20896  1.0000
  H   H2693     1.0  0.58558  0.77262  0.09493  1.0000
  H   H2694     1.0  0.93546  0.77184  0.36700  1.0000
  H   H2695     1.0  0.96393  0.81748  0.31945  1.0000
  H   H2696     1.0  0.73235  0.95297  0.99765  1.0000
  H   H2697     1.0  0.79463  0.76889  0.28819  1.0000
  H   H2698     1.0  0.80768  0.75537  0.32841  1.0000
  H   H2699     1.0  0.65172  0.80666  0.12535  1.0000
  C   C1543     1.0  0.95308  0.93160  0.36611  1.0000
  C   C1544     1.0  0.59493  0.83011  0.05280  1.0000
  H   H2700     1.0  0.51892  0.90773  0.98149  1.0000
  H   H2701     1.0  0.65980  0.78981  0.11687  1.0000
  H   H2702     1.0  0.50197  0.96367  0.19723  1.0000
  H   H2703     1.0  0.91066  0.92942  0.35944  1.0000
  Fe  Fe179     1.0  0.63929  0.97990  0.17141  1.0000
  H   H2704     1.0  0.60796  0.98002  0.10173  1.0000
  H   H2705     1.0  0.55273  0.95268  0.16992  1.0000
  H   H2706     1.0  0.98655  0.94429  0.41751  1.0000
  H   H2707     1.0  0.89239  0.95355  0.43269  1.0000
  C   C1545     1.0  0.56694  0.75806  0.12152  1.0000
  H   H2708     1.0  0.92094  0.81659  0.39439  1.0000
  C   C1546     1.0  0.93883  0.82733  0.42113  1.0000
  H   H2709     1.0  0.96384  0.83070  0.33940  1.0000
  H   H2710     1.0  0.94295  0.81815  0.43416  1.0000
  C   C1547     1.0  0.55938  0.74746  0.20427  1.0000
  H   H2711     1.0  0.60404  0.78115  0.04586  1.0000
  H   H2712     1.0  0.92546  0.84518  0.32191  1.0000
  C   C1548     1.0  0.76073  0.97751  0.36277  1.0000
  H   H2713     1.0  0.55013  0.95912  0.20046  1.0000
  C   C1549     1.0  0.79090  0.80371  0.35840  1.0000
  C   C1550     1.0  0.93369  0.86761  0.39170  1.0000
  H   H2714     1.0  0.76517  0.82158  0.35525  1.0000
  C   C1551     1.0  0.56804  0.75234  0.14968  1.0000
  C   C1552     1.0  0.82980  0.73954  0.24238  1.0000
  H   H2715     1.0  0.83971  0.76447  0.25501  1.0000
  C   C1553     1.0  0.98143  0.87395  0.38846  1.0000
  C   C1554     1.0  0.55931  0.74103  0.23150  1.0000
  H   H2716     1.0  0.49964  0.98236  0.23689  1.0000
  H   H2717     1.0  0.91080  0.78130  0.38532  1.0000
  S   S362      1.0  0.88977  0.74873  0.29193  1.0000
  H   H2718     1.0  0.72711  0.76967  0.22001  1.0000
  H   H2719     1.0  0.62153  0.85144  0.02723  1.0000
  H   H2720     1.0  0.61959  0.84256  0.07258  1.0000
  H   H2721     1.0  0.92972  0.96515  0.36593  1.0000
  C   C1555     1.0  0.89395  0.94278  0.42913  1.0000
  C   C1556     1.0  0.65456  0.80034  0.10924  1.0000
  H   H2722     1.0  0.76746  0.75826  0.28634  1.0000
  H   H2723     1.0  0.93191  0.90632  0.36679  1.0000
  H   H2724     1.0  0.57907  0.77804  0.12613  1.0000
  C   C1557     1.0  0.96401  0.74253  0.32234  1.0000
  H   H2725     1.0  0.97272  0.81050  0.39883  1.0000
  H   H2726     1.0  0.81420  0.82380  0.33398  1.0000
  N   N84       1.0  0.94953  0.94548  0.37527  1.0000
  C   C1558     1.0  0.74795  0.82816  0.28748  1.0000
  H   H2727     1.0  0.75731  0.97893  0.31322  1.0000
  C   C1559     1.0  0.95533  0.82093  0.33757  1.0000
  H   H2728     1.0  0.93025  0.87048  0.37135  1.0000
  N   N85       1.0  0.59399  0.81841  0.07296  1.0000
  H   H2729     1.0  0.95303  0.90930  0.33862  1.0000
  H   H2730     1.0  0.51182  0.75252  0.13955  1.0000
  H   H2731     1.0  0.57580  0.83173  0.04297  1.0000
  H   H2732     1.0  0.77170  0.74235  0.25013  1.0000
  C   C1560     1.0  0.80074  0.97088  0.28965  1.0000
  H   H2733     1.0  0.84028  0.78275  0.18738  1.0000
  H   H2734     1.0  0.72801  0.75475  0.24165  1.0000
  H   H2735     1.0  0.63289  0.96502  0.07817  1.0000
  H   H2736     1.0  0.52562  0.81971  0.12076  1.0000
  H   H2737     1.0  0.63703  0.81836  0.06956  1.0000
  H   H2738     1.0  0.97471  0.96118  0.38248  1.0000
  H   H2739     1.0  0.90568  0.93683  0.44398  1.0000
  H   H2740     1.0  0.52314  0.76259  0.16186  1.0000
  H   H2741     1.0  0.80252  0.79679  0.34632  1.0000
  H   H2742     1.0  0.63287  0.79437  0.07913  1.0000
  H   H2743     1.0  0.93074  0.93251  0.33138  1.0000
  H   H2744     1.0  0.51241  0.95526  0.14298  1.0000
  H   H2745     1.0  0.65895  0.73838  0.11777  1.0000
  C   C1561     1.0  0.78397  0.74953  0.23837  1.0000
  H   H2746     1.0  0.60621  0.76572  0.12039  1.0000
  C   C1562     1.0  0.80686  0.74833  0.27917  1.0000
  H   H2747     1.0  0.80224  0.81588  0.30907  1.0000
  H   H2748     1.0  0.77704  0.95782  0.35555  1.0000
  C   C1563     1.0  0.79982  0.83909  0.28624  1.0000
  C   C1564     1.0  0.51406  0.96246  0.17957  1.0000
  H   H2749     1.0  0.81746  0.76233  0.20269  1.0000
  C   C1565     1.0  0.96367  0.81759  0.38368  1.0000
  H   H2750     1.0  0.53401  0.84666  0.05606  1.0000
  H   H2751     1.0  0.83235  0.85179  0.29102  1.0000
  C   C1566     1.0  0.52006  0.75197  0.15872  1.0000
  H   H2752     1.0  0.83261  0.74047  0.22142  1.0000
  H   H2753     1.0  0.95475  0.83425  0.42225  1.0000
  H   H2754     1.0  0.81275  0.78673  0.20874  1.0000
  H   H2755     1.0  0.74566  0.96416  0.22841  1.0000
  C   C1567     1.0  0.97663  0.95049  0.37799  1.0000
  H   H2756     1.0  0.61048  0.82794  0.03795  1.0000
  H   H2757     1.0  0.97102  0.78377  0.38294  1.0000
  C   C1568     1.0  0.77941  0.84666  0.35509  1.0000
  C   C1569     1.0  0.58506  0.80661  0.06080  1.0000
  N   N86       1.0  0.96319  0.81086  0.35948  1.0000
  H   H2758     1.0  0.97674  0.88124  0.40285  1.0000
  S   S363      1.0  0.86047  0.86278  0.39366  1.0000
  H   H2759     1.0  0.58458  0.84766  0.07441  1.0000
  C   C1570     1.0  0.86302  0.83526  0.40931  1.0000
  H   H2760     1.0  0.86520  0.84122  0.26200  1.0000
  H   H2761     1.0  0.96695  0.85389  0.38418  1.0000
  C   C1571     1.0  0.97603  0.78662  0.28910  1.0000
  H   H2762     1.0  0.56820  0.76111  0.16107  1.0000
  H   H2763     1.0  0.94843  0.88326  0.46467  1.0000
  H   H2764     1.0  0.50271  0.84083  0.09143  1.0000
  H   H2765     1.0  0.91756  0.90932  0.33624  1.0000
  C   C1572     1.0  0.93551  0.94509  0.40103  1.0000
  N   N87       1.0  0.77951  0.96165  0.29935  1.0000
  C   C1573     1.0  0.76173  0.95918  0.27855  1.0000
  C   C1574     1.0  0.79288  0.94840  0.30958  1.0000
  C   C1575     1.0  0.76294  0.96823  0.31973  1.0000
  H   H2766     1.0  0.91681  0.95945  0.30608  1.0000
  C   C1576     1.0  0.83106  0.76637  0.21538  1.0000
  C   C1577     1.0  0.74719  0.97191  0.26526  1.0000
  S   S364      1.0  0.63641  0.92766  0.98172  1.0000
  C   C1578     1.0  0.77403  0.93769  0.32102  1.0000
  C   C1579     1.0  0.78901  0.92648  0.33731  1.0000
  H   H2767     1.0  0.72136  0.97772  0.23402  1.0000
  H   H2768     1.0  0.79236  0.98147  0.28641  1.0000
  H   H2769     1.0  0.80445  0.80784  0.37107  1.0000
  H   H2770     1.0  0.74587  0.95264  0.28615  1.0000
  H   H2771     1.0  0.77297  0.95347  0.26405  1.0000
  H   H2772     1.0  0.80500  0.94362  0.29449  1.0000
  H   H2773     1.0  0.80751  0.94999  0.32384  1.0000
  H   H2774     1.0  0.74367  0.96360  0.32338  1.0000
  H   H2775     1.0  0.53466  0.94395  0.19589  1.0000
  H   H2776     1.0  0.95825  0.74819  0.33897  1.0000
  H   H2777     1.0  0.59648  0.97352  0.03373  1.0000
  C   C1580     1.0  0.96978  0.89940  0.44603  1.0000
  H   H2778     1.0  0.66589  0.97109  0.09893  1.0000
  H   H2779     1.0  0.77442  0.76313  0.33011  1.0000
  H   H2780     1.0  0.84630  0.78582  0.21940  1.0000
  S   S365      1.0  0.89760  0.87614  0.45329  1.0000
  C   C1581     1.0  0.99095  0.80489  0.35366  1.0000
  H   H2781     1.0  0.75769  0.94201  0.33301  1.0000
  H   H2782     1.0  0.76505  0.93308  0.30556  1.0000
  H   H2783     1.0  0.77557  0.91848  0.34374  1.0000
  H   H2784     1.0  0.80621  0.92200  0.32649  1.0000
  H   H2785     1.0  0.79615  0.93050  0.35434  1.0000
  C   C1582     1.0  0.93676  0.82365  0.39408  1.0000
  H   H2786     1.0  0.94268  0.97012  0.29480  1.0000
  C   C1583     1.0  0.90663  0.94091  0.40291  1.0000
  H   H2787     1.0  0.85111  0.76130  0.21233  1.0000
  H   H2788     1.0  0.76114  0.97951  0.25802  1.0000
  H   H2789     1.0  0.50297  0.74993  0.19759  1.0000
  H   H2790     1.0  0.92400  0.80304  0.36447  1.0000
  C   C1584     1.0  0.77635  0.81508  0.34219  1.0000
  C   C1585     1.0  0.53941  0.95397  0.18682  1.0000
  N   N88       1.0  0.62847  0.89693  0.15705  1.0000
  C   C1586     1.0  0.62384  0.88614  0.17830  1.0000
  C   C1587     1.0  0.60585  0.89772  0.13925  1.0000
  C   C1588     1.0  0.65352  0.89251  0.14253  1.0000
  C   C1589     1.0  0.63177  0.91054  0.16615  1.0000
  C   C1590     1.0  0.61623  0.91403  0.19083  1.0000
  C   C1591     1.0  0.64761  0.88212  0.19555  1.0000
  C   C1592     1.0  0.66064  0.90150  0.11822  1.0000
  C   C1593     1.0  0.57787  0.90181  0.15038  1.0000
  C   C1594     1.0  0.55621  0.89986  0.13225  1.0000
  C   C1595     1.0  0.61672  0.92896  0.19442  1.0000
  C   C1596     1.0  0.63901  0.87412  0.22008  1.0000
  C   C1597     1.0  0.68923  0.89831  0.10884  1.0000
  H   H2791     1.0  0.61867  0.87676  0.17045  1.0000
  H   H2792     1.0  0.60650  0.88899  0.19061  1.0000
  H   H2793     1.0  0.60906  0.90525  0.12283  1.0000
  H   H2794     1.0  0.60509  0.88789  0.13117  1.0000
  H   H2795     1.0  0.65242  0.88210  0.13699  1.0000
  H   H2796     1.0  0.67094  0.89212  0.15467  1.0000
  H   H2797     1.0  0.65299  0.91179  0.16949  1.0000
  H   H2798     1.0  0.62630  0.91862  0.15105  1.0000
  H   H2799     1.0  0.62535  0.90825  0.20748  1.0000
  H   H2800     1.0  0.59524  0.91168  0.19103  1.0000
  H   H2801     1.0  0.66271  0.87562  0.18569  1.0000
  H   H2802     1.0  0.65722  0.89109  0.20037  1.0000
  H   H2803     1.0  0.65853  0.91228  0.12148  1.0000
  H   H2804     1.0  0.64746  0.89973  0.10298  1.0000
  H   H2805     1.0  0.57310  0.89578  0.16831  1.0000
  H   H2806     1.0  0.57654  0.91263  0.15360  1.0000
  H   H2807     1.0  0.53645  0.90263  0.14101  1.0000
  H   H2808     1.0  0.55859  0.90641  0.11440  1.0000
  H   H2809     1.0  0.55675  0.88921  0.12790  1.0000
  H   H2810     1.0  0.60688  0.93110  0.21286  1.0000
  H   H2811     1.0  0.63744  0.93197  0.19413  1.0000
  H   H2812     1.0  0.60593  0.93516  0.17918  1.0000
  H   H2813     1.0  0.62472  0.88033  0.23138  1.0000
  H   H2814     1.0  0.62968  0.86493  0.21589  1.0000
  H   H2815     1.0  0.65659  0.87100  0.23156  1.0000
  H   H2816     1.0  0.69292  0.90408  0.09028  1.0000
  H   H2817     1.0  0.70336  0.90116  0.12244  1.0000
  H   H2818     1.0  0.69292  0.88744  0.10638  1.0000
  C   C1598     1.0  0.92530  0.82367  0.33288  1.0000
  H   H2819     1.0  0.67125  0.80389  0.09670  1.0000
  Fe  Fe180     1.0  0.86559  0.87656  0.42487  1.0000
  H   H2820     1.0  0.56401  0.80861  0.05538  1.0000
  C   C1599     1.0  0.79587  0.82283  0.32375  1.0000
  C   C1600     1.0  0.94514  0.79943  0.36201  1.0000
  H   H2821     1.0  0.59274  0.94915  0.03247  1.0000
  C   C1601     1.0  0.79149  0.84748  0.32777  1.0000
  H   H2822     1.0  0.52735  0.86084  0.07442  1.0000
  H   H2823     1.0  0.93550  0.95512  0.40850  1.0000
  H   H2824     1.0  0.79668  0.97112  0.34286  1.0000
  H   H2825     1.0  0.68321  0.74971  0.21422  1.0000
  H   H2826     1.0  0.52007  0.97248  0.17173  1.0000
  H   H2827     1.0  0.77530  0.76910  0.21659  1.0000
  C   C1602     1.0  0.62924  0.97167  0.06052  1.0000
  H   H2828     1.0  0.95905  0.95008  0.32352  1.0000
  H   H2829     1.0  0.77638  0.79790  0.37033  1.0000
  H   H2830     1.0  0.77566  0.86830  0.35834  1.0000
  Fe  Fe181     1.0  0.90631  0.89639  0.43434  1.0000
  H   H2831     1.0  0.81317  0.84758  0.33019  1.0000
  H   H2832     1.0  0.59534  0.80993  0.02025  1.0000
  H   H2833     1.0  0.77686  0.85802  0.38805  1.0000
  H   H2834     1.0  0.94630  0.79444  0.34408  1.0000
  H   H2835     1.0  0.61945  0.94547  0.05377  1.0000
  H   H2836     1.0  0.84972  0.74062  0.24985  1.0000
  C   C1603     1.0  0.84390  0.83939  0.26108  1.0000
  H   H2837     1.0  0.57943  0.75104  0.19965  1.0000
  C   C1604     1.0  0.50543  0.77615  0.22490  1.0000
  H   H2838     1.0  0.56506  0.74842  0.24420  1.0000
  H   H2839     1.0  0.54961  0.94215  0.99412  1.0000
  H   H2840     1.0  0.57098  0.98578  0.06817  1.0000
  N   N89       1.0  0.78569  0.83645  0.31175  1.0000
  S   S366      1.0  0.94599  0.90433  0.42348  1.0000
  C   C1605     1.0  0.57350  0.82244  0.09298  1.0000
  H   H2841     1.0  0.89844  0.83717  0.31014  1.0000
  Fe  Fe182     1.0  0.84799  0.90605  0.43165  1.0000
  H   H2842     1.0  0.91773  0.81490  0.32498  1.0000
  H   H2843     1.0  0.80281  0.96876  0.24866  1.0000
  H   H2844     1.0  0.77069  0.97708  0.38105  1.0000
  H   H2845     1.0  0.83496  0.84652  0.24599  1.0000
  H   H2846     1.0  0.58357  0.80881  0.12627  1.0000
  H   H2847     1.0  0.74458  0.83508  0.32508  1.0000
  H   H2848     1.0  0.76165  0.81055  0.33135  1.0000
  H   H2849     1.0  0.58513  0.79751  0.07438  1.0000
  C   C1606     1.0  0.75633  0.83731  0.30728  1.0000
  H   H2850     1.0  0.55994  0.80241  0.10673  1.0000
  H   H2851     1.0  0.78510  0.85747  0.31804  1.0000
  C   C1607     1.0  0.86156  0.84540  0.38930  1.0000
  C   C1608     1.0  0.59692  0.78867  0.03049  1.0000
  H   H2852     1.0  0.98567  0.74297  0.31846  1.0000
  C   C1609     1.0  0.60144  0.80287  0.03672  1.0000
  C   C1610     1.0  0.60104  0.84372  0.06204  1.0000
  H   H2853     1.0  0.79798  0.83058  0.27452  1.0000
  H   H2854     1.0  0.54965  0.82548  0.14084  1.0000
  H   H2855     1.0  0.75762  0.84609  0.35551  1.0000
  C   C1611     1.0  0.78749  0.75539  0.32105  1.0000
  H   H2856     1.0  0.78866  0.83778  0.36640  1.0000
  H   H2857     1.0  0.79025  0.84810  0.27540  1.0000
  H   H2858     1.0  0.78732  0.74516  0.21987  1.0000
  H   H2859     1.0  0.80674  0.85993  0.36883  1.0000
  C   C1612     1.0  0.60453  0.85443  0.03995  1.0000
  H   H2860     1.0  0.74934  0.84781  0.30061  1.0000
  H   H2861     1.0  0.86413  0.81386  0.42000  1.0000
  H   H2862     1.0  0.63040  0.74756  0.19180  1.0000
  H   H2863     1.0  0.58619  0.85622  0.02903  1.0000
  H   H2864     1.0  0.83970  0.83440  0.30125  1.0000
  C   C1613     1.0  0.82977  0.84135  0.28665  1.0000
  H   H2865     1.0  0.84260  0.82894  0.25611  1.0000
  C   C1614     1.0  0.95055  0.78849  0.38422  1.0000
  C   C1615     1.0  0.81608  0.96736  0.26488  1.0000
  C   C1616     1.0  0.76645  0.76280  0.23261  1.0000
  H   H2866     1.0  0.84369  0.95062  0.47261  1.0000
  H   H2867     1.0  0.62329  0.82229  0.09918  1.0000
  H   H2868     1.0  0.92830  0.87645  0.40246  1.0000
  C   C1617     1.0  0.96257  0.86254  0.39561  1.0000
  H   H2869     1.0  0.58024  0.83074  0.10303  1.0000
  C   C1618     1.0  0.62912  0.80099  0.09467  1.0000
  H   H2870     1.0  0.54483  0.75628  0.20317  1.0000
  C   C1619     1.0  0.54374  0.81674  0.13154  1.0000
  H   H2871     1.0  0.57333  0.75003  0.10903  1.0000
  H   H2872     1.0  0.87366  0.93920  0.43034  1.0000
  H   H2873     1.0  0.92044  0.85957  0.39852  1.0000
  H   H2874     1.0  0.53902  0.80870  0.14652  1.0000
  C   C1620     1.0  0.56638  0.81152  0.11424  1.0000
  H   H2875     1.0  0.61366  0.79664  0.10755  1.0000
  H   H2876     1.0  0.97540  0.87928  0.36999  1.0000
  H   H2877     1.0  0.96416  0.85890  0.41591  1.0000
  C   C1621     1.0  0.62114  0.81564  0.08394  1.0000
  S   S367      1.0  0.83436  0.88658  0.45021  1.0000
  C   C1622     1.0  0.94945  0.95917  0.33143  1.0000
  S   S368      1.0  0.87886  0.90804  0.45947  1.0000
  H   H2878     1.0  0.95320  0.74752  0.30586  1.0000
  H   H2879     1.0  0.64676  0.96940  0.04779  1.0000
  C   C1623     1.0  0.58562  0.76931  0.11545  1.0000
  H   H2880     1.0  0.99282  0.74046  0.26419  1.0000
  C   C1624     1.0  0.66374  0.98213  0.09963  1.0000
  H   H2881     1.0  0.58890  0.96517  0.06461  1.0000
  C   C1625     1.0  0.73866  0.76002  0.22536  1.0000
  C   C1626     1.0  0.93357  0.91209  0.34793  1.0000
  H   H2882     1.0  0.60814  0.78651  0.01269  1.0000
  H   H2883     1.0  0.89408  0.94700  0.38900  1.0000
  H   H2884     1.0  0.97680  0.82603  0.38124  1.0000
  H   H2885     1.0  0.69673  0.98120  0.12448  1.0000
  H   H2886     1.0  0.96512  0.96602  0.33409  1.0000
  H   H2887     1.0  0.77966  0.74541  0.32639  1.0000
  H   H2888     1.0  0.50902  0.76760  0.23863  1.0000
  C   C1627     1.0  0.61107  0.95295  0.03897  1.0000
  H   H2889     1.0  0.98998  0.81858  0.26891  1.0000
  H   H2890     1.0  0.62558  0.95383  0.02267  1.0000
  H   H2891     1.0  0.85239  0.74008  0.33334  1.0000
  H   H2892     1.0  0.97140  0.93052  0.35381  1.0000
  C   C1628     1.0  0.77616  0.96807  0.34552  1.0000
  H   H2893     1.0  0.98837  0.95039  0.35976  1.0000
  C   C1629     1.0  0.60452  0.96657  0.04942  1.0000
  H   H2894     1.0  0.61048  0.96943  0.98462  1.0000
  H   H2895     1.0  0.81569  0.97119  0.30424  1.0000
  H   H2896     1.0  0.90631  0.93009  0.40015  1.0000
  H   H2897     1.0  0.91968  0.97519  0.31957  1.0000
  H   H2898     1.0  0.64080  0.98399  0.01320  1.0000
  C   C1630     1.0  0.99330  0.80809  0.27568  1.0000
  H   H2899     1.0  0.64954  0.98449  0.11538  1.0000
  H   H2900     1.0  0.81494  0.96222  0.47497  1.0000
  H   H2901     1.0  0.72075  0.97045  0.99338  1.0000
  H   H2902     1.0  0.82661  0.74817  0.28769  1.0000
  C   C1631     1.0  0.63335  0.74058  0.17751  1.0000
  C   C1632     1.0  0.99297  0.90618  0.44538  1.0000
  C   C1633     1.0  0.49876  0.95584  0.15991  1.0000
  Fe  Fe183     1.0  0.85964  0.98410  0.33498  1.0000
  C   C1634     1.0  0.51851  0.85433  0.06175  1.0000
  H   H2903     1.0  0.99484  0.93151  0.39617  1.0000
  H   H2904     1.0  0.70599  0.98413  0.09137  1.0000
  H   H2905     1.0  0.79905  0.73841  0.28511  1.0000
  H   H2906     1.0  0.99572  0.91463  0.43156  1.0000
  H   H2907     1.0  0.93379  0.91653  0.47509  1.0000
  H   H2908     1.0  0.84836  0.97432  0.23994  1.0000
  C   C1635     1.0  0.83880  0.97643  0.25850  1.0000
  H   H2909     1.0  0.85397  0.97448  0.27308  1.0000
  C   C1636     1.0  0.99424  0.94243  0.39816  1.0000
  Fe  Fe184     1.0  0.86740  0.88805  0.47683  1.0000
  C   C1637     1.0  0.49786  0.74776  0.17838  1.0000
  H   H2910     1.0  0.53920  0.73801  0.23769  1.0000
  C   C1638     1.0  0.55273  0.73740  0.18555  1.0000
  H   H2911     1.0  0.67036  0.98653  0.05972  1.0000
  H   H2912     1.0  0.58183  0.94461  0.97887  1.0000
  C   C1639     1.0  0.69063  0.98656  0.10616  1.0000
  N   N90       1.0  0.62764  0.98624  0.06588  1.0000
  Fe  Fe185     1.0  0.58829  0.95317  0.80140  1.0000
  S   S369      1.0  0.59871  0.95478  0.84162  1.0000
  S   S370      1.0  0.54550  0.95938  0.78904  1.0000
  Fe  Fe186     1.0  0.64874  0.94718  0.78404  1.0000
  S   S371      1.0  0.66216  0.94800  0.82364  1.0000
  S   S372      1.0  0.67559  0.94457  0.74767  1.0000
  Fe  Fe187     1.0  0.62653  0.93659  0.83663  1.0000
  S   S373      1.0  0.62736  0.91859  0.86589  1.0000
  Fe  Fe188     1.0  0.63313  0.96606  0.82530  1.0000
  S   S374      1.0  0.61462  0.93425  0.79695  1.0000
  S   S375      1.0  0.62118  0.96596  0.78530  1.0000
  Fe  Fe189     1.0  0.89170  0.94182  0.66079  1.0000
  S   S376      1.0  0.88246  0.95406  0.62424  1.0000
  S   S377      1.0  0.93515  0.93329  0.66552  1.0000
  Fe  Fe190     1.0  0.83103  0.94248  0.67870  1.0000
  S   S378      1.0  0.81936  0.95433  0.64244  1.0000
  S   S379      1.0  0.80050  0.93986  0.71300  1.0000
  Fe  Fe191     1.0  0.84901  0.94079  0.62210  1.0000
  S   S380      1.0  0.84189  0.93731  0.58127  1.0000
  Fe  Fe192     1.0  0.85379  0.96642  0.64740  1.0000
  S   S381      1.0  0.85890  0.92775  0.65792  1.0000
  S   S382      1.0  0.86510  0.95528  0.68441  1.0000
  H   H2913     1.0  0.98906  0.92203  0.66802  1.0000
  C   C1640     1.0  0.81582  0.98466  0.55681  1.0000
  H   H2914     1.0  0.66796  0.90404  0.71458  1.0000
  H   H2915     1.0  0.55511  0.95745  0.97450  1.0000
  H   H2916     1.0  0.64050  0.90333  0.95526  1.0000
  N   N91       1.0  0.54761  0.91707  0.93619  1.0000
  C   C1641     1.0  0.91822  0.91340  0.61283  1.0000
  H   H2917     1.0  0.59721  0.94225  0.63169  1.0000
  S   S383      1.0  0.86448  0.88555  0.51998  1.0000
  C   C1642     1.0  0.51814  0.91586  0.94107  1.0000
  C   C1643     1.0  0.84851  0.92264  0.56518  1.0000
  C   C1644     1.0  0.85349  0.90986  0.57777  1.0000
  C   C1645     1.0  0.85761  0.89851  0.56382  1.0000
  C   C1646     1.0  0.85732  0.89988  0.53720  1.0000
  C   C1647     1.0  0.85231  0.91269  0.52480  1.0000
  C   C1648     1.0  0.84794  0.92396  0.53870  1.0000
  H   H2918     1.0  0.85360  0.90867  0.59821  1.0000
  H   H2919     1.0  0.86098  0.88864  0.57370  1.0000
  H   H2920     1.0  0.85124  0.91394  0.50450  1.0000
  H   H2921     1.0  0.84383  0.93376  0.52885  1.0000
  C   C1649     1.0  0.71054  0.94296  0.73874  1.0000
  C   C1650     1.0  0.71836  0.94151  0.71323  1.0000
  C   C1651     1.0  0.74550  0.94030  0.70510  1.0000
  C   C1652     1.0  0.76560  0.94064  0.72230  1.0000
  C   C1653     1.0  0.75778  0.94199  0.74784  1.0000
  C   C1654     1.0  0.73063  0.94317  0.75599  1.0000
  H   H2922     1.0  0.70327  0.94128  0.69956  1.0000
  H   H2923     1.0  0.75089  0.93912  0.68547  1.0000
  H   H2924     1.0  0.77291  0.94220  0.76150  1.0000
  H   H2925     1.0  0.72529  0.94422  0.77568  1.0000
  C   C1655     1.0  0.62981  0.92116  0.89803  1.0000
  C   C1656     1.0  0.62617  0.93404  0.90619  1.0000
  C   C1657     1.0  0.62775  0.93582  0.93195  1.0000
  H   H2926     1.0  0.90073  0.86249  0.54644  1.0000
  C   C1658     1.0  0.63635  0.91189  0.94170  1.0000
  C   C1659     1.0  0.63470  0.91009  0.91588  1.0000
  H   H2927     1.0  0.62201  0.94260  0.89265  1.0000
  H   H2928     1.0  0.92831  0.85281  0.53291  1.0000
  C   C1660     1.0  0.93109  0.90761  0.56817  1.0000
  H   H2929     1.0  0.63741  0.90009  0.90967  1.0000
  H   H2930     1.0  0.85826  0.96313  0.55873  1.0000
  C   C1661     1.0  0.51312  0.95330  0.79535  1.0000
  C   C1662     1.0  0.50929  0.93995  0.80415  1.0000
  C   C1663     1.0  0.78651  0.97862  0.72685  1.0000
  H   H2931     1.0  0.52632  0.93305  0.80817  1.0000
  H   H2932     1.0  0.90622  0.88655  0.55458  1.0000
  H   H2933     1.0  0.72452  0.97128  0.93314  1.0000
  H   H2934     1.0  0.98265  0.89549  0.58830  1.0000
  H   H2935     1.0  0.51250  0.91858  0.76507  1.0000
  H   H2936     1.0  0.93577  0.91931  0.61389  1.0000
  C   C1664     1.0  0.92803  0.88458  0.55518  1.0000
  H   H2937     1.0  0.81805  0.96788  0.70531  1.0000
  H   H2938     1.0  0.71824  0.94921  0.95560  1.0000
  C   C1665     1.0  0.54618  0.92606  0.86279  1.0000
  H   H2939     1.0  0.94842  0.96092  0.67207  1.0000
  C   C1666     1.0  0.63062  0.91617  0.71699  1.0000
  H   H2940     1.0  0.93946  0.92479  0.52867  1.0000
  H   H2941     1.0  0.60487  0.96879  0.95158  1.0000
  H   H2942     1.0  0.99159  0.97052  0.67708  1.0000
  H   H2943     1.0  0.60256  0.88478  0.95488  1.0000
  H   H2944     1.0  0.91273  0.90918  0.63229  1.0000
  H   H2945     1.0  0.54049  0.93424  0.90864  1.0000
  H   H2946     1.0  0.78589  0.97067  0.67941  1.0000
  H   H2947     1.0  0.58128  0.97325  0.74417  1.0000
  C   C1667     1.0  0.92266  0.86055  0.54617  1.0000
  H   H2948     1.0  0.68689  0.97806  0.74754  1.0000
  C   C1668     1.0  0.93034  0.92346  0.49021  1.0000
  C   C1669     1.0  0.94350  0.91745  0.51440  1.0000
  H   H2949     1.0  0.55352  0.89725  0.92269  1.0000
  H   H2950     1.0  0.90655  0.89618  0.59639  1.0000
  H   H2951     1.0  0.62635  0.91460  0.69724  1.0000
  H   H2952     1.0  0.92886  0.85657  0.56538  1.0000
  H   H2953     1.0  0.71818  0.97388  0.71224  1.0000
  C   C1670     1.0  0.63332  0.92482  0.94975  1.0000
  H   H2954     1.0  0.96522  0.91638  0.51014  1.0000
  H   H2955     1.0  0.90128  0.92021  0.60569  1.0000
  H   H2956     1.0  0.58821  0.95112  0.67285  1.0000
  H   H2957     1.0  0.77808  0.96916  0.73510  1.0000
  H   H2958     1.0  0.57336  0.92662  0.90727  1.0000
  C   C1671     1.0  0.61712  0.97310  0.96518  1.0000
  H   H2959     1.0  0.91228  0.91317  0.56170  1.0000
  C   C1672     1.0  0.80449  0.97348  0.57554  1.0000
  H   H2960     1.0  0.56594  0.93708  0.64536  1.0000
  C   C1673     1.0  0.74898  0.97902  0.66462  1.0000
  C   C1674     1.0  0.83018  0.96796  0.74335  1.0000
  H   H2961     1.0  0.94088  0.89534  0.60396  1.0000
  H   H2962     1.0  0.98562  0.97282  0.62296  1.0000
  C   C1675     1.0  0.56310  0.89448  0.96142  1.0000
  C   C1676     1.0  0.66067  0.91424  0.71949  1.0000
  H   H2963     1.0  0.70096  0.97959  0.95303  1.0000
  H   H2964     1.0  0.62433  0.94577  0.93807  1.0000
  H   H2965     1.0  0.59493  0.92528  0.64571  1.0000
  S   S384      1.0  0.64608  0.98555  0.83691  1.0000
  H   H2966     1.0  0.58319  0.90451  0.92906  1.0000
  H   H2967     1.0  0.52989  0.94214  0.95185  1.0000
  H   H2968     1.0  0.64177  0.97403  0.92047  1.0000
  C   C1677     1.0  0.81613  0.97487  0.72025  1.0000
  N   N92       1.0  0.94113  0.89764  0.54955  1.0000
  H   H2969     1.0  0.89456  0.98545  0.53854  1.0000
  H   H2970     1.0  0.94549  0.91541  0.56897  1.0000
  H   H2971     1.0  0.95782  0.87091  0.53705  1.0000
  C   C1678     1.0  0.55216  0.92435  0.91026  1.0000
  H   H2972     1.0  0.61077  0.95859  0.70167  1.0000
  H   H2973     1.0  0.77811  0.97130  0.60861  1.0000
  H   H2974     1.0  0.62180  0.90825  0.73000  1.0000
  H   H2975     1.0  0.82058  0.96694  0.58483  1.0000
  H   H2976     1.0  0.54189  0.92030  0.84681  1.0000
  C   C1679     1.0  0.96558  0.94081  0.66926  1.0000
  C   C1680     1.0  0.97420  0.98270  0.62327  1.0000
  H   H2977     1.0  0.97318  0.87937  0.58082  1.0000
  H   H2978     1.0  0.93146  0.88008  0.57469  1.0000
  H   H2979     1.0  0.53130  0.93477  0.86336  1.0000
  H   H2980     1.0  0.60899  0.97520  0.87591  1.0000
  H   H2981     1.0  0.53548  0.92754  0.72591  1.0000
  H   H2982     1.0  0.82687  0.98385  0.71352  1.0000
  C   C1681     1.0  0.82968  0.95563  0.48608  1.0000
  H   H2983     1.0  0.91109  0.90439  0.52258  1.0000
  H   H2984     1.0  0.75841  0.96556  0.69810  1.0000
  H   H2985     1.0  0.53661  0.90617  0.75366  1.0000
  C   C1682     1.0  0.93610  0.87342  0.53738  1.0000
  H   H2986     1.0  0.85133  0.96539  0.73815  1.0000
  H   H2987     1.0  0.56170  0.94528  0.93670  1.0000
  C   C1683     1.0  0.93313  0.90354  0.52353  1.0000
  C   C1684     1.0  0.99361  0.94876  0.58639  1.0000
  C   C1685     1.0  0.56232  0.90339  0.93606  1.0000
  H   H2988     1.0  0.70985  0.97338  0.89228  1.0000
  C   C1686     1.0  0.50752  0.91533  0.96905  1.0000
  C   C1687     1.0  0.96460  0.95058  0.59559  1.0000
  H   H2989     1.0  0.52483  0.91329  0.89014  1.0000
  C   C1688     1.0  0.54504  0.91692  0.88745  1.0000
  H   H2990     1.0  0.92951  0.96726  0.54524  1.0000
  C   C1689     1.0  0.72487  0.97963  0.72732  1.0000
  H   H2991     1.0  0.92985  0.87649  0.51782  1.0000
  C   C1690     1.0  0.92443  0.90200  0.59578  1.0000
  H   H2992     1.0  0.65767  0.97232  0.97586  1.0000
  H   H2993     1.0  0.74833  0.96403  0.97394  1.0000
  H   H2994     1.0  0.56630  0.92975  0.85925  1.0000
  H   H2995     1.0  0.95575  0.96044  0.58760  1.0000
  H   H2996     1.0  0.61999  0.95690  0.73380  1.0000
  H   H2997     1.0  0.57574  0.87596  0.94430  1.0000
  C   C1691     1.0  0.88874  0.97495  0.53973  1.0000
  C   C1692     1.0  0.58194  0.88194  0.95927  1.0000
  C   C1693     1.0  0.53406  0.91600  0.76184  1.0000
  H   H2998     1.0  0.72661  0.96128  0.66518  1.0000
  H   H2999     1.0  0.85409  0.97169  0.48967  1.0000
  C   C1694     1.0  0.55965  0.92485  0.95522  1.0000
  H   H3000     1.0  0.58157  0.92374  0.95314  1.0000
  H   H3001     1.0  0.55955  0.90821  0.88496  1.0000
  H   H3002     1.0  0.79208  0.96713  0.56561  1.0000
  N   N93       1.0  0.68354  0.96913  0.92492  1.0000
  C   C1695     1.0  0.68069  0.95489  0.91901  1.0000
  H   H3003     1.0  0.73064  0.98499  0.67000  1.0000
  C   C1696     1.0  0.65695  0.97486  0.93461  1.0000
  C   C1697     1.0  0.61254  0.98537  0.87920  1.0000
  C   C1698     1.0  0.98959  0.93269  0.66941  1.0000
  C   C1699     1.0  0.70469  0.94809  0.90466  1.0000
  H   H3004     1.0  0.64827  0.95765  0.96252  1.0000
  C   C1700     1.0  0.97096  0.89553  0.54920  1.0000
  H   H3005     1.0  0.82926  0.97469  0.75885  1.0000
  H   H3006     1.0  0.86196  0.97853  0.57113  1.0000
  C   C1701     1.0  0.70293  0.93289  0.90572  1.0000
  H   H3007     1.0  0.61701  0.93921  0.67345  1.0000
  H   H3008     1.0  0.66331  0.95457  0.90700  1.0000
  H   H3009     1.0  0.67623  0.94830  0.93641  1.0000
  H   H3010     1.0  0.66601  0.91528  0.73923  1.0000
  H   H3011     1.0  0.67084  0.92176  0.70656  1.0000
  H   H3012     1.0  0.73476  0.97244  0.74168  1.0000
  H   H3013     1.0  0.73041  0.97039  0.63451  1.0000
  H   H3014     1.0  0.54153  0.93662  0.75240  1.0000
  H   H3015     1.0  0.54310  0.89102  0.96656  1.0000
  H   H3016     1.0  0.61381  0.98421  0.96287  1.0000
  H   H3017     1.0  0.82095  0.95850  0.75015  1.0000
  H   H3018     1.0  0.70493  0.95200  0.88437  1.0000
  H   H3019     1.0  0.72377  0.95012  0.91249  1.0000
  H   H3020     1.0  0.97994  0.90533  0.54601  1.0000
  N   N94       1.0  0.83743  0.98013  0.53827  1.0000
  C   C1702     1.0  0.70496  0.97021  0.94337  1.0000
  H   H3021     1.0  0.55532  0.92063  0.97487  1.0000
  C   C1703     1.0  0.96663  0.95453  0.67179  1.0000
  C   C1704     1.0  0.64644  0.96874  0.96066  1.0000
  H   H3022     1.0  0.67559  0.97599  0.88582  1.0000
  H   H3023     1.0  0.94035  0.89683  0.50886  1.0000
  H   H3024     1.0  0.54362  0.91510  0.78039  1.0000
  C   C1705     1.0  0.76647  0.97449  0.68754  1.0000
  H   H3025     1.0  0.82050  0.96104  0.53592  1.0000
  H   H3026     1.0  0.70278  0.92832  0.92560  1.0000
  H   H3027     1.0  0.68466  0.93053  0.89674  1.0000
  C   C1706     1.0  0.98337  0.88839  0.57343  1.0000
  H   H3028     1.0  0.72029  0.92832  0.89527  1.0000
  C   C1707     1.0  0.82628  0.96992  0.52325  1.0000
  N   N95       1.0  0.59045  0.93371  0.72119  1.0000
  C   C1708     1.0  0.61991  0.93039  0.72353  1.0000
  C   C1709     1.0  0.58290  0.94774  0.72866  1.0000
  C   C1710     1.0  0.57636  0.92391  0.73959  1.0000
  C   C1711     1.0  0.58145  0.93211  0.69505  1.0000
  C   C1712     1.0  0.59511  0.94036  0.67275  1.0000
  H   H3029     1.0  0.90526  0.95543  0.55585  1.0000
  C   C1713     1.0  0.54597  0.92698  0.74386  1.0000
  C   C1714     1.0  0.60280  0.95865  0.72134  1.0000
  C   C1715     1.0  0.98621  0.88425  0.48105  1.0000
  C   C1716     1.0  0.58777  0.93593  0.64738  1.0000
  H   H3030     1.0  0.98377  0.87562  0.49458  1.0000
  C   C1717     1.0  0.70960  0.95833  0.96410  1.0000
  H   H3031     1.0  0.62556  0.93152  0.74317  1.0000
  H   H3032     1.0  0.63169  0.93761  0.71154  1.0000
  H   H3033     1.0  0.56320  0.95149  0.72124  1.0000
  H   H3034     1.0  0.58039  0.94757  0.74965  1.0000
  H   H3035     1.0  0.58522  0.92327  0.75850  1.0000
  H   H3036     1.0  0.57904  0.91359  0.73338  1.0000
  H   H3037     1.0  0.58351  0.92133  0.69129  1.0000
  H   H3038     1.0  0.55991  0.93506  0.69370  1.0000
  C   C1718     1.0  0.90968  0.96617  0.55470  1.0000
  C   C1719     1.0  0.86091  0.97393  0.55294  1.0000
  H   H3039     1.0  0.96300  0.95036  0.61654  1.0000
  H   H3040     1.0  0.96482  0.98544  0.60483  1.0000
  H   H3041     1.0  0.95303  0.94253  0.58957  1.0000
  C   C1720     1.0  0.55163  0.94014  0.95353  1.0000
  H   H3042     1.0  0.90863  0.92539  0.49379  1.0000
  H   H3043     1.0  0.51193  0.90682  0.93288  1.0000
  H   H3044     1.0  0.60509  0.98019  0.72126  1.0000
  H   H3045     1.0  0.86068  0.95704  0.51165  1.0000
  H   H3046     1.0  0.53650  0.98233  0.93704  1.0000
  H   H3047     1.0  0.97832  0.89001  0.53276  1.0000
  C   C1721     1.0  0.69035  0.97721  0.90027  1.0000
  H   H3048     1.0  0.80777  0.97436  0.51420  1.0000
  H   H3049     1.0  0.77040  0.98625  0.58791  1.0000
  C   C1722     1.0  0.78680  0.97952  0.59626  1.0000
  C   C1723     1.0  0.84487  0.96389  0.50258  1.0000
  H   H3050     1.0  0.79858  0.98525  0.60807  1.0000
  H   H3051     1.0  0.57401  0.97534  0.71099  1.0000
  C   C1724     1.0  0.74058  0.96693  0.65228  1.0000
  H   H3052     1.0  0.91017  0.96930  0.57416  1.0000
  H   H3053     1.0  0.95818  0.98180  0.63821  1.0000
  H   H3054     1.0  0.75808  0.96008  0.64773  1.0000
  H   H3055     1.0  0.89321  0.98228  0.61444  1.0000
  H   H3056     1.0  0.69113  0.95564  0.97459  1.0000
  H   H3057     1.0  0.50189  0.98125  0.93041  1.0000
  H   H3058     1.0  0.78569  0.98517  0.74268  1.0000
  C   C1725     1.0  0.58994  0.97270  0.72466  1.0000
  C   C1726     1.0  0.99123  0.95998  0.67450  1.0000
  H   H3059     1.0  0.81918  0.94775  0.49781  1.0000
  H   H3060     1.0  0.57034  0.98197  0.81219  1.0000
  H   H3061     1.0  0.55217  0.98458  0.85490  1.0000
  H   H3062     1.0  0.58828  0.98525  0.91362  1.0000
  H   H3063     1.0  0.93879  0.93311  0.48347  1.0000
  H   H3064     1.0  0.88943  0.97180  0.52032  1.0000
  N   N96       1.0  0.77011  0.98501  0.70527  1.0000
  H   H3065     1.0  0.50657  0.92449  0.93100  1.0000
  H   H3066     1.0  0.76039  0.98525  0.65017  1.0000
  H   H3067     1.0  0.99413  0.94894  0.56557  1.0000
  H   H3068     1.0  0.99370  0.92750  0.59912  1.0000
  C   C1727     1.0  0.70005  0.98604  0.74010  1.0000
  H   H3069     1.0  0.65724  0.98575  0.93681  1.0000
  H   H3070     1.0  0.57012  0.89979  0.97691  1.0000
  H   H3071     1.0  0.58167  0.87558  0.97756  1.0000
  C   C1728     1.0  0.56008  0.94644  0.97671  1.0000
  H   H3072     1.0  0.50873  0.92520  0.97659  1.0000
