data_image0
_chemical_formula_structural       H3C4H2CHC2H2CNC2H3CHSH2CH4CHCH4CHCH7C2H7SH4CHCH3C2Fe2SHNCH5CH2SCH3CH2C2HCHCNH2CH3CHCHC3H3CH7C2H2NCSHCH5CSHCHCHCHCH3CH6CHCH4CH4C3H5C2HC2HC2H2NHFeC2H10CSH2CH2FeCSFeH4SFeSHCH3CHC2HSFeCSH2CHCSHS2H2SH3C2H2CHCH2C3H2C2H2NC2SHC3HCHCSCHC5HFeS2FeS2FeHFeS3FeS2FeS2FeSFeCS2FeS2H2FeC2HFeS2HCH5CH2CHFeH5CH4C6H4C8H6CH4CNC12H28C2H2SC3SH7CNC12H28NC2HC3HC4H5SCH11CHCHSH3CH2NCSC4H3SH4CH3CH3C2H2SCHCHSH3CH2CHCSC2H5CH7NHC2HCHSH3FeCH3C2HC2H2FeC3HC3HCH2CH2C3HCH2NCH7C2H2CFeS2FeS2FeSFeS3FeS2FeS2FeCFeHS2FeHSHS2H6CH4C2H2CH2C6H4CH4C9H4NHCHC3HC3H6CH2CHC2H7CHCH2NC3H3CH2CH8CHCHC2H2CH4CH3C2HNC4HNH2C2HC2H2CHCH2CH13CSCSCH2CHC3H5CHCHCH2CNH3CNCH2C2H6CH5NC8HCSCH16CFeH4SCH4CH5C2H7C2HCH5CHCH2CH3CH2CH4C2H2CHC3HCH2C2H5CH4CH2CFeSCFeS2FeSFeS3CSFeS2CHSFeS2HSH3CNH3NCH2CH4CHSH3C6H2C6H6C2HCHCH10C2H2SH2NC11H19CH6C2HCH8FeHCHCH2CHNC8HC2H2CHCSH3CH7C3NH4CH2CSH6C2H5CH2CH4C3HCHCH8CH2CSC2HFeHCHCFeHCHCH8CH3CHC3H4CH2C3HNHCH6CHCSH2FeC2NHCH3CH2C3H5SCHSH2CH2FeCH2CH2CH3CHCH4SCH2CH2CH2CHC2H2C2H8FeH5C2H2NH2C4HCH2CH4C2H2SCHC2H3C3HCHCH2C2FeC2H2C2HC2SH3CH2FeHCHSFeHCSHCH6CFeNH5CHCHSHCSCH4S2CS2HC2H2FeS2FeS2FeSFeS3HFeS2FeS2FeSFeS3FeS2C2HCH8C3H2C6H3C7H4C6H7C2H4CNHC3H2CH4CH7NC7H20CH5CH8C5H7CH5NH4CH2C2HCH3CH5CH2CH2C3H3NC11H20NCH2CH3C3H3C2HCH3C4HCH2CH2C2HCHCHCH2CHC2HC2H5CHCHCH6CH5FeS2FeS2FeSFeS3FeS2FeS2FeSFeS3FeS2HCHC3H3CHC7H4C6H4C6H6CH4C2H4C3H8NC8HC2H13FeH3CSCH6FeH2NC4HC2H5CH2CH8C2HNC8HC3H17C2H6SH4C2NH3C2H2CH9CH2CH5CH2CH2C2H4C3HCH2CH4CH2C2H2CHC2HCH6C2H2SCH3CHCSHC4H5CFeSH2FeSFeHS2CSH3FeS2H4CH3CSC3HSC7H3CH2FeH3CHCH3C3HNC2HC6HCH13CH3CH9C2HCHC3NHC3HCFeH4SH4C2H10CHCSH5CH2CH4C2H5C2NHSCSCHCSCH5Fe2S2CHCHS3CH2SNHCH3CH4C3HCHCH4C4H5C2HCH4CSH3FeCH3C2H2C3HCH2CHN2HC2H2SHC2H2CH2CH5CHCH5C3H3SHCH7CH3CH3C3HC3H5FeHCH7C2H2CH2CHC2FeCH3FeC2H2CHC2SFeS2FeS2FeSFeS3FeS2FeS2FeCFeS3FeS2H2SHCH6CH2C6H4C6H4CHCH2C6H4C4H2CH5CH3CH2CH2CH3C2H2CH4CHCHCH2C2HCH2C2H4CH2CHCH3NCHC2SNH5CHFeHCHCSH2C3H6C2H3CNC12H19CH2CH6C2HCH7C2HCHC2HNHCHCH7CHCHCH2CHCH3CH2NC3HCHC2HCH11NH2CH7CH2CHCH4CH4CH6CH2CH2CH3C2H2CHCFeCHSH2FeS2FeS2FeSFeS3HCHFeS2FeS2FeSFeS3HS2CHC6H4C4H2C3H3C2H4C7H4C6H4C2NHC4HCNHCHCH6CH5C2H6CH4CHC2HSH2C3H2C3HCNC4HC3FeHC2H30CHNC9H13CHCH5CHNC5HC5H10CH9CH10CH3C2SC2H2CH5C2H3CSH7CH14C3H2CH3CH6CH5SH3FeHSCSC2HFeCHCHCH2CH2CH2C2HCHNH3CHCH5C2HCH3CH3C2FeH2FeHC2H2FeCH4CH2C2HC4SH3CH2NCHC2H2CHCH2CHC2H4SH2CSCH4CH3SH4CH2C4HCFeC2H2C2H3CH4CHCHSH9CH2SH2SH6C3H5FeS2FeCH2SCFeS2FeS2FeSFeS3FeSCFeSHCFeS2FeC2FeS2FeS2CHSH2CHC3HC3H3C6H4C4HC2HSH2CH11C4H2C4HCH3CHC3H3CH2SCH6CH4SH6C2H6NC2HC3H5SH12C2H2C2HCH2CHC3H2C2H5CH3NC10NCH23CH4NC11H19CH2FeNHC3H3SC2H4C2HC2HCH2FeHCH5FeHCH2CH3CHSHCH5CH2CH4C2HNH6CH2CFeS2FeS2Fe2S3FeS2FeSFeS3HSHCH2FeS2FeS2H3CH2C2HCH3C3H4CH2NHC7H5FeHCHC6H5C2H4CH3CHNH2NC10H22C3H3SH3FeHCH2CH8NC4H2C4H7CH2CHCHNH11CH6C3HC3HCHFeHSH2CSCH2CH4C3H2CNC9HC2H24CSCHCH3C4HCH2C2H2CHSH2CH3CFeHC3H2FeS2FeS2FeSFeS2FeS2FeSFeS3FeS2FeS2H2CHCH7CFeHCHC2H2C7H6CHCH3CHC6H5CH2CH3CH4CH4C2H5CH5CH2C3SHCH3CH2CH2C3H4NC2H2CH4CH4NCHCHCHCH3CH2CHCH3C2H2C2H5CHSHC2H9C2H2CHCH3CH2C4H5CH4CHNC4HSC3H10CH5SHCH6CHSHNC3H2CH4CNC5H5CH2C2H2CHCH2CH3C2SHFeH5C4HCNCFeSCH4CH2FeS2FeS2FeSFeS3NH2FeS2FeHSFeH3SHFeS2H3CHCFeS3NCH3C2H4CH3C5SH2SHC6H6CHC2H3CHCH4C3HC2HCHCHCH2NC12H19C2H6CSCH2CSH3CH2NC8FeC2H15SHSH5C2H2CHCSHFeH2C2HCSH2CHCH3FeC2HCH5CHC5NSH7SH3FeC3H2FeC2HCH3CHCH3CH4C4H4CH2CSCHC2H3SNH3CSFeSCHCH2
_chemical_formula_sum              "H2560 C1440 N80 S320 Fe160"
_cell_length_a       59.3626
_cell_length_b       56.6927
_cell_length_c       61.1498
_cell_angle_alpha    91.0401
_cell_angle_beta     90.8146
_cell_angle_gamma    121.455

_space_group_name_H-M_alt    "P 1"
_space_group_IT_number       1

loop_
  _space_group_symop_operation_xyz
  'x, y, z'

loop_
  _atom_site_type_symbol
  _atom_site_label
  _atom_site_symmetry_multiplicity
  _atom_site_fract_x
  _atom_site_fract_y
  _atom_site_fract_z
  _atom_site_occupancy
  H   H1        1.0  0.00939  0.32583  0.03888  1.0000
  H   H2        1.0  0.00821  0.29091  0.15676  1.0000
  H   H3        1.0  0.00767  0.15689  0.00930  1.0000
  C   C1        1.0  0.00571  0.31673  0.11191  1.0000
  C   C2        1.0  0.01109  0.27468  0.16360  1.0000
  C   C3        1.0  0.08958  0.21235  0.00701  1.0000
  C   C4        1.0  0.02969  0.32703  0.00970  1.0000
  H   H4        1.0  0.07152  0.34182  0.01274  1.0000
  H   H5        1.0  0.31813  0.07263  0.07589  1.0000
  C   C5        1.0  0.07678  0.48832  0.15851  1.0000
  H   H6        1.0  0.35463  0.02531  0.24320  1.0000
  C   C6        1.0  0.37000  0.04423  0.25122  1.0000
  C   C7        1.0  0.19187  0.48436  0.25203  1.0000
  H   H7        1.0  0.21125  0.48856  0.24633  1.0000
  H   H8        1.0  0.34044  0.39519  0.10079  1.0000
  C   C8        1.0  0.24453  0.07356  0.00708  1.0000
  N   N1        1.0  0.26532  0.02502  0.08529  1.0000
  C   C9        1.0  0.22035  0.01943  0.07429  1.0000
  C   C10       1.0  0.06274  0.50175  0.16886  1.0000
  H   H9        1.0  0.22031  0.02754  0.09092  1.0000
  H   H10       1.0  0.24670  0.01485  0.05312  1.0000
  H   H11       1.0  0.04199  0.49003  0.16255  1.0000
  C   C11       1.0  0.42281  0.02195  0.11927  1.0000
  H   H12       1.0  0.27109  0.28459  0.25418  1.0000
  S   S1        1.0  0.02705  0.25587  0.01028  1.0000
  H   H13       1.0  0.30240  0.02613  0.08740  1.0000
  H   H14       1.0  0.43218  0.40231  0.25485  1.0000
  C   C12       1.0  0.27491  0.38307  0.25227  1.0000
  H   H15       1.0  0.44532  0.45322  0.17762  1.0000
  H   H16       1.0  0.46491  0.06076  0.25081  1.0000
  H   H17       1.0  0.26203  0.31882  0.11222  1.0000
  H   H18       1.0  0.06288  0.49889  0.18674  1.0000
  C   C13       1.0  0.25563  0.12190  0.00629  1.0000
  H   H19       1.0  0.05778  0.34698  0.03719  1.0000
  C   C14       1.0  0.26209  0.10197  0.01185  1.0000
  H   H20       1.0  0.40937  0.02177  0.10633  1.0000
  H   H21       1.0  0.28365  0.01072  0.06271  1.0000
  H   H22       1.0  0.47722  0.50253  0.16971  1.0000
  H   H23       1.0  0.26535  0.34043  0.14798  1.0000
  C   C15       1.0  0.12953  0.21034  0.01436  1.0000
  H   H24       1.0  0.28919  0.26848  0.24644  1.0000
  C   C16       1.0  0.01363  0.29725  0.07865  1.0000
  H   H25       1.0  0.08431  0.15230  0.01096  1.0000
  H   H26       1.0  0.09037  0.39491  0.22251  1.0000
  H   H27       1.0  0.26984  0.14361  0.00937  1.0000
  H   H28       1.0  0.01489  0.12631  0.03543  1.0000
  H   H29       1.0  0.15700  0.48138  0.23677  1.0000
  H   H30       1.0  0.17573  0.12410  0.01522  1.0000
  H   H31       1.0  0.14816  0.09813  0.02994  1.0000
  C   C17       1.0  0.50114  0.46008  0.20015  1.0000
  C   C18       1.0  0.44862  0.36423  0.25195  1.0000
  H   H32       1.0  0.17407  0.09230  0.02204  1.0000
  H   H33       1.0  0.05105  0.31289  0.02953  1.0000
  H   H34       1.0  0.06652  0.46618  0.16289  1.0000
  H   H35       1.0  0.08676  0.28786  0.11420  1.0000
  H   H36       1.0  0.42879  0.34513  0.24897  1.0000
  H   H37       1.0  0.22005  0.05296  0.05743  1.0000
  H   H38       1.0  0.49162  0.41211  0.23897  1.0000
  S   S2        1.0  0.25452  0.04964  0.01387  1.0000
  H   H39       1.0  0.14201  0.20765  0.02581  1.0000
  H   H40       1.0  0.34311  0.07402  0.04374  1.0000
  H   H41       1.0  0.27233  0.37189  0.12063  1.0000
  H   H42       1.0  0.31908  0.31892  0.25026  1.0000
  C   C19       1.0  0.20799  0.03005  0.05814  1.0000
  H   H43       1.0  0.35090  0.01085  0.09171  1.0000
  C   C20       1.0  0.28305  0.33296  0.10785  1.0000
  H   H44       1.0  0.29747  0.06034  0.05118  1.0000
  H   H45       1.0  0.25858  0.04904  0.06169  1.0000
  H   H46       1.0  0.09758  0.49868  0.16467  1.0000
  C   C21       1.0  0.10636  0.20912  0.02158  1.0000
  C   C22       1.0  0.49045  0.04309  0.25064  1.0000
  Fe  Fe1       1.0  0.34913  0.36259  0.20028  1.0000
  Fe  Fe2       1.0  0.02553  0.21529  0.00688  1.0000
  S   S3        1.0  0.01580  0.34602  0.12985  1.0000
  H   H47       1.0  0.41435  0.02128  0.13548  1.0000
  N   N2        1.0  0.46959  0.35674  0.25305  1.0000
  C   C23       1.0  0.17712  0.48658  0.23224  1.0000
  H   H48       1.0  0.49265  0.06589  0.21396  1.0000
  H   H49       1.0  0.25715  0.03669  0.11682  1.0000
  H   H50       1.0  0.49777  0.00768  0.20800  1.0000
  H   H51       1.0  0.25724  0.07187  0.09475  1.0000
  H   H52       1.0  0.29057  0.11424  0.11478  1.0000
  C   C24       1.0  0.27651  0.07410  0.09903  1.0000
  H   H53       1.0  0.01446  0.26361  0.15014  1.0000
  H   H54       1.0  0.30810  0.09782  0.12340  1.0000
  S   S4        1.0  0.01524  0.43758  0.20688  1.0000
  C   C25       1.0  0.24869  0.02772  0.06778  1.0000
  H   H55       1.0  0.29735  0.35853  0.16090  1.0000
  H   H56       1.0  0.45522  0.01273  0.18647  1.0000
  H   H57       1.0  0.20637  0.02095  0.04150  1.0000
  C   C26       1.0  0.27264  0.04548  0.10423  1.0000
  H   H58       1.0  0.10134  0.20547  0.03862  1.0000
  H   H59       1.0  0.45005  0.05320  0.17988  1.0000
  C   C27       1.0  0.28323  0.31601  0.15312  1.0000
  C   C28       1.0  0.46765  0.05285  0.17441  1.0000
  H   H60       1.0  0.24373  0.11321  0.13515  1.0000
  C   C29       1.0  0.24235  0.13005  0.10392  1.0000
  H   H61       1.0  0.29174  0.31968  0.10676  1.0000
  C   C30       1.0  0.32635  0.36445  0.12689  1.0000
  N   N3        1.0  0.23118  0.14646  0.06835  1.0000
  H   H62       1.0  0.18783  0.02387  0.06331  1.0000
  H   H63       1.0  0.48511  0.07427  0.17515  1.0000
  C   C31       1.0  0.28523  0.34380  0.23434  1.0000
  H   H64       1.0  0.01964  0.48515  0.22840  1.0000
  H   H65       1.0  0.32845  0.34643  0.12982  1.0000
  H   H66       1.0  0.28160  0.32183  0.18822  1.0000
  C   C32       1.0  0.21457  0.13488  0.04753  1.0000
  H   H67       1.0  0.06102  0.28621  0.09695  1.0000
  C   C33       1.0  0.20249  0.18516  0.10053  1.0000
  H   H68       1.0  0.26256  0.14163  0.05569  1.0000
  C   C34       1.0  0.22377  0.12294  0.08354  1.0000
  C   C35       1.0  0.16979  0.10821  0.02786  1.0000
  C   C36       1.0  0.10715  0.30634  0.21774  1.0000
  H   H69       1.0  0.24713  0.18532  0.08696  1.0000
  H   H70       1.0  0.02908  0.29544  0.19486  1.0000
  H   H71       1.0  0.03494  0.26892  0.18646  1.0000
  C   C37       1.0  0.03442  0.28703  0.18052  1.0000
  H   H72       1.0  0.33692  0.36237  0.09312  1.0000
  H   H73       1.0  0.20336  0.11410  0.08931  1.0000
  H   H74       1.0  0.22343  0.10546  0.07453  1.0000
  H   H75       1.0  0.30071  0.35892  0.07881  1.0000
  H   H76       1.0  0.07637  0.48936  0.14039  1.0000
  H   H77       1.0  0.17616  0.10530  0.06191  1.0000
  H   H78       1.0  0.09149  0.30696  0.15431  1.0000
  C   C38       1.0  0.20638  0.16107  0.09533  1.0000
  C   C39       1.0  0.32990  0.05402  0.05160  1.0000
  H   H79       1.0  0.26724  0.19841  0.05071  1.0000
  H   H80       1.0  0.22417  0.08737  0.11417  1.0000
  N   N4        1.0  0.48265  0.02736  0.22892  1.0000
  C   C40       1.0  0.26596  0.33638  0.25037  1.0000
  S   S5        1.0  0.35517  0.31670  0.12951  1.0000
  H   H81       1.0  0.09725  0.37137  0.17651  1.0000
  C   C41       1.0  0.47253  0.03399  0.18867  1.0000
  H   H82       1.0  0.17505  0.47168  0.21914  1.0000
  H   H83       1.0  0.28113  0.10871  0.01950  1.0000
  H   H84       1.0  0.36565  0.41176  0.24174  1.0000
  H   H85       1.0  0.26746  0.34967  0.08397  1.0000
  H   H86       1.0  0.22524  0.18077  0.06524  1.0000
  C   C42       1.0  0.30816  0.05545  0.06353  1.0000
  S   S6        1.0  0.36523  0.29983  0.24455  1.0000
  H   H87       1.0  0.21183  0.15529  0.11089  1.0000
  C   C43       1.0  0.22839  0.16936  0.07841  1.0000
  H   H88       1.0  0.07160  0.38603  0.15332  1.0000
  C   C44       1.0  0.08078  0.31766  0.19145  1.0000
  H   H89       1.0  0.33621  0.37844  0.14141  1.0000
  C   C45       1.0  0.30268  0.42707  0.13231  1.0000
  H   H90       1.0  0.26213  0.17391  0.02924  1.0000
  C   C46       1.0  0.47657  0.04365  0.21309  1.0000
  H   H91       1.0  0.29869  0.39704  0.15503  1.0000
  H   H92       1.0  0.26079  0.13104  0.09905  1.0000
  H   H93       1.0  0.28960  0.08388  0.08512  1.0000
  C   C47       1.0  0.06016  0.33384  0.16614  1.0000
  H   H94       1.0  0.30302  0.31858  0.15450  1.0000
  H   H95       1.0  0.30138  0.38859  0.10536  1.0000
  H   H96       1.0  0.27282  0.16720  0.07722  1.0000
  H   H97       1.0  0.48820  0.34282  0.23013  1.0000
  H   H98       1.0  0.27119  0.29937  0.14074  1.0000
  H   H99       1.0  0.10749  0.28933  0.22617  1.0000
  C   C48       1.0  0.46893  0.34139  0.23228  1.0000
  H   H100      1.0  0.45126  0.37731  0.23779  1.0000
  C   C49       1.0  0.25969  0.15829  0.06239  1.0000
  H   H101      1.0  0.26817  0.32448  0.05147  1.0000
  H   H102      1.0  0.45417  0.31896  0.23344  1.0000
  H   H103      1.0  0.10684  0.32051  0.23037  1.0000
  H   H104      1.0  0.46409  0.04506  0.15716  1.0000
  C   C50       1.0  0.28829  0.09410  0.11882  1.0000
  H   H105      1.0  0.22039  0.15131  0.03545  1.0000
  H   H106      1.0  0.24790  0.15037  0.11151  1.0000
  H   H107      1.0  0.12548  0.31790  0.20830  1.0000
  H   H108      1.0  0.31262  0.27961  0.05682  1.0000
  C   C51       1.0  0.38174  0.28216  0.25128  1.0000
  C   C52       1.0  0.28963  0.02799  0.07497  1.0000
  C   C53       1.0  0.05393  0.33248  0.02319  1.0000
  H   H109      1.0  0.44218  0.04161  0.11844  1.0000
  H   H110      1.0  0.07574  0.36905  0.12980  1.0000
  H   H111      1.0  0.45230  0.31204  0.19235  1.0000
  H   H112      1.0  0.43999  0.34294  0.21085  1.0000
  H   H113      1.0  0.26919  0.28662  0.17925  1.0000
  C   C54       1.0  0.02148  0.31935  0.09399  1.0000
  C   C55       1.0  0.18437  0.12161  0.04959  1.0000
  H   H114      1.0  0.10056  0.35409  0.15305  1.0000
  C   C56       1.0  0.46458  0.33486  0.19084  1.0000
  C   C57       1.0  0.07930  0.36025  0.24299  1.0000
  H   H115      1.0  0.47273  0.37198  0.20799  1.0000
  C   C58       1.0  0.27103  0.18192  0.04578  1.0000
  C   C59       1.0  0.46114  0.34947  0.21059  1.0000
  H   H116      1.0  0.18712  0.14328  0.08957  1.0000
  H   H117      1.0  0.48563  0.34127  0.18933  1.0000
  N   N5        1.0  0.06114  0.30879  0.17245  1.0000
  H   H118      1.0  0.07621  0.32843  0.20446  1.0000
  Fe  Fe3       1.0  0.02188  0.35274  0.21233  1.0000
  C   C60       1.0  0.08270  0.29436  0.20257  1.0000
  C   C61       1.0  0.06212  0.30077  0.13022  1.0000
  H   H119      1.0  0.02599  0.29967  0.06504  1.0000
  H   H120      1.0  0.25190  0.30009  0.07279  1.0000
  H   H121      1.0  0.45811  0.34051  0.17570  1.0000
  H   H122      1.0  0.05260  0.26044  0.11718  1.0000
  H   H123      1.0  0.38357  0.39964  0.09637  1.0000
  H   H124      1.0  0.32120  0.03743  0.03863  1.0000
  H   H125      1.0  0.18692  0.17894  0.11283  1.0000
  H   H126      1.0  0.13762  0.42025  0.23485  1.0000
  H   H127      1.0  0.32873  0.41267  0.13985  1.0000
  H   H128      1.0  0.49006  0.03432  0.18225  1.0000
  C   C62       1.0  0.22958  0.10795  0.12117  1.0000
  S   S7        1.0  0.37602  0.37773  0.17138  1.0000
  H   H129      1.0  0.06524  0.28204  0.21283  1.0000
  H   H130      1.0  0.42682  0.26703  0.23276  1.0000
  C   C63       1.0  0.37228  0.39049  0.11138  1.0000
  H   H131      1.0  0.29096  0.04911  0.11276  1.0000
  H   H132      1.0  0.21161  0.10693  0.12741  1.0000
  Fe  Fe4       1.0  0.36887  0.32478  0.21440  1.0000
  C   C64       1.0  0.41297  0.26769  0.24368  1.0000
  S   S8        1.0  0.45235  0.41157  0.19991  1.0000
  Fe  Fe5       1.0  0.36213  0.33260  0.16545  1.0000
  H   H133      1.0  0.37957  0.40698  0.12438  1.0000
  H   H134      1.0  0.04643  0.32900  0.15203  1.0000
  H   H135      1.0  0.06172  0.27483  0.15627  1.0000
  H   H136      1.0  0.30419  0.41130  0.23007  1.0000
  S   S9        1.0  0.20925  0.19201  0.01874  1.0000
  Fe  Fe6       1.0  0.40778  0.38046  0.19388  1.0000
  S   S10       1.0  0.33389  0.31754  0.19343  1.0000
  H   H137      1.0  0.28906  0.32851  0.22759  1.0000
  C   C65       1.0  0.48408  0.49078  0.17818  1.0000
  H   H138      1.0  0.28123  0.41946  0.13134  1.0000
  H   H139      1.0  0.30579  0.17953  0.03883  1.0000
  H   H140      1.0  0.19632  0.19137  0.08553  1.0000
  C   C66       1.0  0.28038  0.26166  0.10480  1.0000
  H   H141      1.0  0.24961  0.30200  0.17441  1.0000
  C   C67       1.0  0.33085  0.29555  0.08899  1.0000
  C   C68       1.0  0.28395  0.26200  0.08203  1.0000
  H   H142      1.0  0.27517  0.08567  0.13302  1.0000
  S   S11       1.0  0.25583  0.24105  0.06431  1.0000
  Fe  Fe7       1.0  0.24824  0.23151  0.02703  1.0000
  C   C69       1.0  0.47427  0.44713  0.19371  1.0000
  S   S12       1.0  0.38185  0.36885  0.22310  1.0000
  H   H143      1.0  0.10103  0.33311  0.18618  1.0000
  H   H144      1.0  0.26087  0.24865  0.11111  1.0000
  C   C70       1.0  0.30185  0.27794  0.11955  1.0000
  H   H145      1.0  0.31161  0.43552  0.11631  1.0000
  C   C71       1.0  0.46586  0.46274  0.18268  1.0000
  S   S13       1.0  0.04563  0.34052  0.23400  1.0000
  H   H146      1.0  0.40325  0.29074  0.22155  1.0000
  S   S14       1.0  0.03590  0.38449  0.18636  1.0000
  S   S15       1.0  0.39594  0.33626  0.18603  1.0000
  H   H147      1.0  0.29880  0.27682  0.13697  1.0000
  H   H148      1.0  0.30840  0.21151  0.03155  1.0000
  S   S16       1.0  0.32387  0.38142  0.20692  1.0000
  H   H149      1.0  0.22111  0.20324  0.10728  1.0000
  H   H150      1.0  0.08374  0.28035  0.19027  1.0000
  H   H151      1.0  0.35040  0.30868  0.08270  1.0000
  C   C72       1.0  0.29365  0.39033  0.23577  1.0000
  C   C73       1.0  0.28138  0.34212  0.08439  1.0000
  H   H152      1.0  0.45813  0.04298  0.21759  1.0000
  H   H153      1.0  0.31215  0.44407  0.14492  1.0000
  C   C74       1.0  0.08731  0.35981  0.16098  1.0000
  H   H154      1.0  0.04143  0.29549  0.12841  1.0000
  C   C75       1.0  0.39641  0.05173  0.24968  1.0000
  H   H155      1.0  0.21812  0.11927  0.03965  1.0000
  H   H156      1.0  0.17987  0.13778  0.05395  1.0000
  C   C76       1.0  0.32725  0.29527  0.11175  1.0000
  C   C77       1.0  0.39966  0.28117  0.23729  1.0000
  C   C78       1.0  0.29934  0.37093  0.22704  1.0000
  H   H157      1.0  0.10414  0.39804  0.14336  1.0000
  H   H158      1.0  0.07480  0.32255  0.12533  1.0000
  C   C79       1.0  0.12394  0.40039  0.24157  1.0000
  C   C80       1.0  0.08444  0.37938  0.14596  1.0000
  H   H159      1.0  0.34192  0.04993  0.06326  1.0000
  H   H160      1.0  0.37606  0.37422  0.11672  1.0000
  N   N6        1.0  0.29754  0.35544  0.12543  1.0000
  C   C81       1.0  0.30942  0.27902  0.07423  1.0000
  C   C82       1.0  0.29384  0.37945  0.12146  1.0000
  S   S17       1.0  0.05967  0.20879  0.01702  1.0000
  H   H161      1.0  0.28557  0.31132  0.06612  1.0000
  C   C83       1.0  0.09715  0.38608  0.23455  1.0000
  C   C84       1.0  0.30708  0.40378  0.13862  1.0000
  C   C85       1.0  0.30091  0.19521  0.04396  1.0000
  H   H162      1.0  0.05163  0.34009  0.17956  1.0000
  C   C86       1.0  0.28555  0.34370  0.14722  1.0000
  H   H163      1.0  0.31110  0.20508  0.05986  1.0000
  C   C87       1.0  0.27109  0.31798  0.06777  1.0000
  S   S18       1.0  0.40588  0.03079  0.23525  1.0000
  C   C88       1.0  0.06594  0.28269  0.11371  1.0000
  H   H164      1.0  0.03984  0.33871  0.09186  1.0000
  C   C89       1.0  0.34282  0.37818  0.10650  1.0000
  C   C90       1.0  0.27005  0.30606  0.17510  1.0000
  C   C91       1.0  0.06963  0.29725  0.15395  1.0000
  C   C92       1.0  0.00610  0.47982  0.21456  1.0000
  C   C93       1.0  0.50535  0.02533  0.22009  1.0000
  H   H165      1.0  0.25487  0.31530  0.25573  1.0000
  Fe  Fe8       1.0  0.23802  0.42671  0.32013  1.0000
  S   S19       1.0  0.19577  0.41357  0.32524  1.0000
  S   S20       1.0  0.27422  0.46772  0.33114  1.0000
  Fe  Fe9       1.0  0.22357  0.37226  0.29672  1.0000
  S   S21       1.0  0.17978  0.35453  0.30038  1.0000
  S   S22       1.0  0.23860  0.34601  0.28155  1.0000
  Fe  Fe10      1.0  0.18815  0.39638  0.29058  1.0000
  H   H166      1.0  0.22964  0.47329  0.34195  1.0000
  Fe  Fe11      1.0  0.19056  0.37278  0.33485  1.0000
  S   S23       1.0  0.16453  0.35109  0.36389  1.0000
  S   S24       1.0  0.23128  0.41287  0.28471  1.0000
  S   S25       1.0  0.23344  0.38707  0.33201  1.0000
  Fe  Fe12      1.0  0.39952  0.18505  0.34403  1.0000
  S   S26       1.0  0.43788  0.22248  0.33373  1.0000
  S   S27       1.0  0.38216  0.19074  0.37558  1.0000
  Fe  Fe13      1.0  0.39951  0.14898  0.30563  1.0000
  S   S28       1.0  0.43774  0.18347  0.29320  1.0000
  S   S29       1.0  0.37352  0.10614  0.28914  1.0000
  Fe  Fe14      1.0  0.45181  0.19285  0.32850  1.0000
  S   S30       1.0  0.49026  0.19700  0.34100  1.0000
  Fe  Fe15      1.0  0.42070  0.21052  0.29928  1.0000
  C   C94       1.0  0.38121  0.32643  0.30992  1.0000
  S   S31       1.0  0.41450  0.15611  0.34067  1.0000
  S   S32       1.0  0.38142  0.17535  0.30986  1.0000
  Fe  Fe16      1.0  0.16127  0.27483  0.47340  1.0000
  S   S33       1.0  0.13277  0.23129  0.46130  1.0000
  S   S34       1.0  0.19070  0.30676  0.44996  1.0000
  H   H167      1.0  0.36295  0.26950  0.28239  1.0000
  H   H168      1.0  0.39157  0.04671  0.34630  1.0000
  Fe  Fe17      1.0  0.10359  0.23227  0.48398  1.0000
  C   C95       1.0  0.39967  0.11101  0.40135  1.0000
  C   C96       1.0  0.36207  0.40098  0.27611  1.0000
  H   H169      1.0  0.32238  0.39642  0.34029  1.0000
  Fe  Fe18      1.0  0.28354  0.10512  0.47280  1.0000
  S   S35       1.0  0.24265  0.09803  0.47550  1.0000
  S   S36       1.0  0.29699  0.10057  0.43873  1.0000
  H   H170      1.0  0.24421  0.49232  0.43463  1.0000
  C   C97       1.0  0.18855  0.47406  0.30142  1.0000
  H   H171      1.0  0.18864  0.45764  0.29143  1.0000
  H   H172      1.0  0.32694  0.10981  0.31664  1.0000
  H   H173      1.0  0.28856  0.38403  0.33234  1.0000
  H   H174      1.0  0.50236  0.24384  0.46983  1.0000
  H   H175      1.0  0.37541  0.36910  0.29843  1.0000
  C   C98       1.0  0.36421  0.05723  0.33062  1.0000
  H   H176      1.0  0.33666  0.22629  0.47692  1.0000
  H   H177      1.0  0.07491  0.32899  0.26508  1.0000
  C   C99       1.0  0.25951  0.48220  0.40551  1.0000
  H   H178      1.0  0.22826  0.21540  0.45027  1.0000
  Fe  Fe19      1.0  0.14770  0.21854  0.49011  1.0000
  H   H179      1.0  0.25683  0.01471  0.46053  1.0000
  H   H180      1.0  0.49594  0.03279  0.26301  1.0000
  H   H181      1.0  0.32635  0.06601  0.31128  1.0000
  H   H182      1.0  0.35387  0.33391  0.32658  1.0000
  H   H183      1.0  0.45074  0.02782  0.26375  1.0000
  C   C100      1.0  0.39033  0.25571  0.27792  1.0000
  H   H184      1.0  0.38672  0.24608  0.29364  1.0000
  H   H185      1.0  0.34292  0.05511  0.26442  1.0000
  H   H186      1.0  0.14437  0.42047  0.30311  1.0000
  H   H187      1.0  0.32052  0.37138  0.26877  1.0000
  C   C101      1.0  0.35907  0.16516  0.39316  1.0000
  C   C102      1.0  0.35726  0.17276  0.41481  1.0000
  C   C103      1.0  0.33849  0.15330  0.42902  1.0000
  C   C104      1.0  0.32109  0.12602  0.42164  1.0000
  C   C105      1.0  0.32275  0.11849  0.39992  1.0000
  C   C106      1.0  0.34152  0.13797  0.38574  1.0000
  H   H188      1.0  0.37061  0.19382  0.42067  1.0000
  H   H189      1.0  0.33770  0.15929  0.44574  1.0000
  H   H190      1.0  0.30927  0.09751  0.39398  1.0000
  H   H191      1.0  0.34215  0.13229  0.36892  1.0000
  C   C107      1.0  0.31121  0.09021  0.32367  1.0000
  C   C108      1.0  0.41609  0.07639  0.26034  1.0000
  C   C109      1.0  0.17308  0.34100  0.38844  1.0000
  C   C110      1.0  0.15358  0.32734  0.40408  1.0000
  C   C111      1.0  0.15863  0.31677  0.42299  1.0000
  C   C112      1.0  0.18348  0.32023  0.42667  1.0000
  C   C113      1.0  0.20332  0.33476  0.41141  1.0000
  C   C114      1.0  0.19815  0.34499  0.39232  1.0000
  H   H192      1.0  0.13419  0.32433  0.40131  1.0000
  H   H193      1.0  0.14327  0.30593  0.43469  1.0000
  H   H194      1.0  0.22269  0.33774  0.41420  1.0000
  H   H195      1.0  0.21339  0.35554  0.38047  1.0000
  H   H196      1.0  0.32132  0.02535  0.35041  1.0000
  H   H197      1.0  0.39866  0.34673  0.31519  1.0000
  C   C115      1.0  0.35612  0.32775  0.30981  1.0000
  H   H198      1.0  0.35180  0.04331  0.39497  1.0000
  H   H199      1.0  0.26879  0.47584  0.27623  1.0000
  H   H200      1.0  0.33384  0.19492  0.46644  1.0000
  H   H201      1.0  0.32675  0.30071  0.26979  1.0000
  C   C116      1.0  0.30801  0.36968  0.31090  1.0000
  N   N7        1.0  0.14755  0.24511  0.38547  1.0000
  C   C117      1.0  0.15380  0.26889  0.37085  1.0000
  C   C118      1.0  0.12866  0.24249  0.40308  1.0000
  C   C119      1.0  0.17308  0.25179  0.39689  1.0000
  C   C120      1.0  0.13683  0.21823  0.37267  1.0000
  C   C121      1.0  0.11152  0.20862  0.35855  1.0000
  C   C122      1.0  0.17189  0.27329  0.35127  1.0000
  C   C123      1.0  0.17104  0.22957  0.41266  1.0000
  C   C124      1.0  0.10754  0.24983  0.39719  1.0000
  C   C125      1.0  0.08847  0.24319  0.41591  1.0000
  C   C126      1.0  0.10543  0.18407  0.34347  1.0000
  C   C127      1.0  0.17653  0.29792  0.33789  1.0000
  C   C128      1.0  0.19500  0.24141  0.42833  1.0000
  H   H202      1.0  0.16317  0.28844  0.38082  1.0000
  H   H203      1.0  0.13561  0.26682  0.36359  1.0000
  H   H204      1.0  0.11797  0.22114  0.40943  1.0000
  H   H205      1.0  0.13980  0.25631  0.41750  1.0000
  H   H206      1.0  0.18182  0.27195  0.40618  1.0000
  H   H207      1.0  0.18816  0.25464  0.38499  1.0000
  H   H208      1.0  0.15235  0.21914  0.36206  1.0000
  H   H209      1.0  0.13182  0.20103  0.38392  1.0000
  H   H210      1.0  0.11328  0.22523  0.34810  1.0000
  H   H211      1.0  0.09439  0.20157  0.36931  1.0000
  H   H212      1.0  0.19161  0.27771  0.35678  1.0000
  H   H213      1.0  0.16270  0.25482  0.34006  1.0000
  H   H214      1.0  0.17005  0.21219  0.40307  1.0000
  H   H215      1.0  0.15324  0.22082  0.42268  1.0000
  H   H216      1.0  0.11715  0.27228  0.39436  1.0000
  H   H217      1.0  0.09581  0.23861  0.38227  1.0000
  H   H218      1.0  0.09935  0.25486  0.43114  1.0000
  H   H219      1.0  0.07393  0.24917  0.41157  1.0000
  H   H220      1.0  0.07750  0.22070  0.41914  1.0000
  H   H221      1.0  0.10288  0.16648  0.35316  1.0000
  H   H222      1.0  0.08681  0.17713  0.33395  1.0000
  H   H223      1.0  0.12158  0.19009  0.33177  1.0000
  H   H224      1.0  0.18857  0.29999  0.32348  1.0000
  H   H225      1.0  0.15751  0.29518  0.33194  1.0000
  H   H226      1.0  0.18745  0.31739  0.34792  1.0000
  H   H227      1.0  0.21351  0.24974  0.41913  1.0000
  H   H228      1.0  0.19618  0.25815  0.43895  1.0000
  H   H229      1.0  0.19300  0.22486  0.43908  1.0000
  C   C129      1.0  0.03020  0.19753  0.48358  1.0000
  C   C130      1.0  0.47885  0.32265  0.27368  1.0000
  H   H230      1.0  0.29412  0.08030  0.31190  1.0000
  H   H231      1.0  0.34729  0.04571  0.31885  1.0000
  S   S37       1.0  0.30159  0.14072  0.49733  1.0000
  C   C131      1.0  0.20147  0.14966  0.49302  1.0000
  C   C132      1.0  0.30377  0.37826  0.33358  1.0000
  C   C133      1.0  0.15903  0.46475  0.30354  1.0000
  S   S38       1.0  0.42765  0.24057  0.27191  1.0000
  H   H232      1.0  0.17358  0.43261  0.36327  1.0000
  H   H233      1.0  0.30475  0.09501  0.33922  1.0000
  H   H234      1.0  0.44073  0.36633  0.28685  1.0000
  H   H235      1.0  0.40270  0.05358  0.30711  1.0000
  H   H236      1.0  0.46644  0.34899  0.28783  1.0000
  H   H237      1.0  0.39995  0.09356  0.40902  1.0000
  H   H238      1.0  0.40686  0.36934  0.26506  1.0000
  C   C134      1.0  0.11528  0.36336  0.26562  1.0000
  N   N8        1.0  0.27140  0.17153  0.42193  1.0000
  C   C135      1.0  0.26415  0.19331  0.42022  1.0000
  C   C136      1.0  0.28726  0.17283  0.40236  1.0000
  C   C137      1.0  0.24583  0.14369  0.42076  1.0000
  C   C138      1.0  0.28616  0.17413  0.44311  1.0000
  C   C139      1.0  0.30515  0.20399  0.45256  1.0000
  C   C140      1.0  0.24391  0.19129  0.43709  1.0000
  C   C141      1.0  0.24845  0.11794  0.41883  1.0000
  C   C142      1.0  0.31371  0.20022  0.39899  1.0000
  C   C143      1.0  0.32447  0.20023  0.37640  1.0000
  C   C144      1.0  0.32247  0.20455  0.47148  1.0000
  C   C145      1.0  0.24373  0.21810  0.43883  1.0000
  C   C146      1.0  0.22153  0.09116  0.41999  1.0000
  H   H239      1.0  0.25560  0.19224  0.40361  1.0000
  H   H240      1.0  0.28184  0.21443  0.42176  1.0000
  H   H241      1.0  0.29299  0.15704  0.40338  1.0000
  H   H242      1.0  0.27485  0.16769  0.38710  1.0000
  H   H243      1.0  0.23321  0.14254  0.40660  1.0000
  H   H244      1.0  0.23417  0.14085  0.43567  1.0000
  H   H245      1.0  0.27215  0.16276  0.45636  1.0000
  H   H246      1.0  0.29758  0.16370  0.44123  1.0000
  H   H247      1.0  0.29366  0.21287  0.45901  1.0000
  H   H248      1.0  0.31840  0.21808  0.44013  1.0000
  H   H249      1.0  0.22365  0.17443  0.43200  1.0000
  H   H250      1.0  0.24828  0.18662  0.45358  1.0000
  H   H251      1.0  0.26142  0.11848  0.43222  1.0000
  H   H252      1.0  0.25680  0.11697  0.40295  1.0000
  H   H253      1.0  0.31184  0.21861  0.40016  1.0000
  H   H254      1.0  0.32867  0.20236  0.41127  1.0000
  H   H255      1.0  0.34468  0.21867  0.37513  1.0000
  H   H256      1.0  0.32565  0.18149  0.37368  1.0000
  H   H257      1.0  0.31162  0.20086  0.36334  1.0000
  H   H258      1.0  0.32303  0.34553  0.32434  1.0000
  H   H259      1.0  0.49851  0.39041  0.27425  1.0000
  H   H260      1.0  0.48285  0.05020  0.29499  1.0000
  H   H261      1.0  0.23935  0.22348  0.42260  1.0000
  H   H262      1.0  0.04835  0.26286  0.48091  1.0000
  H   H263      1.0  0.26310  0.23531  0.44534  1.0000
  H   H264      1.0  0.22429  0.07323  0.41993  1.0000
  H   H265      1.0  0.21140  0.09083  0.43521  1.0000
  H   H266      1.0  0.20876  0.08890  0.40566  1.0000
  N   N9        1.0  0.23845  0.45173  0.40382  1.0000
  C   C147      1.0  0.24747  0.43829  0.38745  1.0000
  C   C148      1.0  0.21339  0.44944  0.39519  1.0000
  H   H267      1.0  0.48225  0.32313  0.30932  1.0000
  C   C149      1.0  0.23451  0.43964  0.42632  1.0000
  C   C150      1.0  0.22507  0.40842  0.42738  1.0000
  C   C151      1.0  0.27577  0.44400  0.39170  1.0000
  H   H268      1.0  0.26520  0.49087  0.38890  1.0000
  C   C152      1.0  0.18963  0.42002  0.38980  1.0000
  C   C153      1.0  0.16700  0.42119  0.37871  1.0000
  C   C154      1.0  0.21701  0.39777  0.45047  1.0000
  C   C155      1.0  0.28068  0.42413  0.37838  1.0000
  H   H269      1.0  0.12227  0.42983  0.31456  1.0000
  H   H270      1.0  0.24693  0.44540  0.37071  1.0000
  H   H271      1.0  0.23371  0.41556  0.38624  1.0000
  H   H272      1.0  0.20597  0.45865  0.40717  1.0000
  H   H273      1.0  0.21761  0.46166  0.38015  1.0000
  S   S39       1.0  0.17761  0.26193  0.50141  1.0000
  C   C156      1.0  0.42653  0.38803  0.26872  1.0000
  H   H274      1.0  0.25322  0.45072  0.43633  1.0000
  H   H275      1.0  0.22037  0.44311  0.43552  1.0000
  H   H276      1.0  0.24119  0.40501  0.42277  1.0000
  H   H277      1.0  0.20806  0.39531  0.41620  1.0000
  H   H278      1.0  0.29060  0.46533  0.38679  1.0000
  H   H279      1.0  0.27933  0.44216  0.40927  1.0000
  H   H280      1.0  0.22508  0.47076  0.27062  1.0000
  H   H281      1.0  0.31010  0.19355  0.48556  1.0000
  H   H282      1.0  0.19501  0.40842  0.37847  1.0000
  H   H283      1.0  0.18179  0.40844  0.40501  1.0000
  H   H284      1.0  0.29671  0.36087  0.34496  1.0000
  C   C157      1.0  0.18294  0.17953  0.49065  1.0000
  H   H285      1.0  0.15973  0.43144  0.38973  1.0000
  C   C158      1.0  0.17973  0.15309  0.48990  1.0000
  H   H286      1.0  0.41891  0.12475  0.39360  1.0000
  S   S40       1.0  0.25505  0.16974  0.50122  1.0000
  H   H287      1.0  0.30088  0.42851  0.38217  1.0000
  H   H288      1.0  0.26620  0.40232  0.38236  1.0000
  H   H289      1.0  0.27921  0.42701  0.36062  1.0000
  C   C159      1.0  0.40953  0.09350  0.27221  1.0000
  H   H290      1.0  0.27793  0.48526  0.41335  1.0000
  H   H291      1.0  0.45233  0.29372  0.29766  1.0000
  N   N10       1.0  0.35616  0.06643  0.35084  1.0000
  C   C160      1.0  0.38051  0.08421  0.36517  1.0000
  S   S41       1.0  0.16717  0.40789  0.26516  1.0000
  C   C161      1.0  0.34581  0.08444  0.34348  1.0000
  C   C162      1.0  0.33450  0.04201  0.36255  1.0000
  C   C163      1.0  0.37706  0.10025  0.38440  1.0000
  C   C164      1.0  0.32138  0.07074  0.32753  1.0000
  H   H292      1.0  0.38846  0.07195  0.37198  1.0000
  H   H293      1.0  0.39682  0.09996  0.35518  1.0000
  H   H294      1.0  0.16021  0.13505  0.48697  1.0000
  S   S42       1.0  0.06182  0.21991  0.47233  1.0000
  H   H295      1.0  0.37940  0.07572  0.32193  1.0000
  H   H296      1.0  0.36172  0.10334  0.33569  1.0000
  H   H297      1.0  0.33966  0.09180  0.35781  1.0000
  H   H298      1.0  0.32147  0.04786  0.37094  1.0000
  C   C165      1.0  0.44690  0.37971  0.27243  1.0000
  H   H299      1.0  0.37718  0.11858  0.37809  1.0000
  H   H300      1.0  0.35811  0.08720  0.39271  1.0000
  H   H301      1.0  0.33919  0.30660  0.30599  1.0000
  C   C166      1.0  0.27203  0.49558  0.34189  1.0000
  H   H302      1.0  0.31391  0.38743  0.30013  1.0000
  H   H303      1.0  0.23371  0.40981  0.46237  1.0000
  H   H304      1.0  0.30291  0.30984  0.29891  1.0000
  C   C167      1.0  0.32931  0.36156  0.31175  1.0000
  C   C168      1.0  0.22681  0.17269  0.49706  1.0000
  H   H305      1.0  0.46609  0.39894  0.27629  1.0000
  H   H306      1.0  0.08085  0.29291  0.47856  1.0000
  S   S43       1.0  0.15453  0.18232  0.48707  1.0000
  C   C169      1.0  0.08854  0.34901  0.25852  1.0000
  H   H307      1.0  0.29291  0.32593  0.28010  1.0000
  C   C170      1.0  0.30967  0.32338  0.28451  1.0000
  H   H308      1.0  0.36044  0.41013  0.29172  1.0000
  S   S44       1.0  0.19745  0.02739  0.50232  1.0000
  H   H309      1.0  0.35809  0.02449  0.37473  1.0000
  H   H310      1.0  0.23273  0.47004  0.29887  1.0000
  H   H311      1.0  0.14989  0.46332  0.28722  1.0000
  C   C171      1.0  0.34313  0.02902  0.38048  1.0000
  H   H312      1.0  0.38035  0.44086  0.26078  1.0000
  H   H313      1.0  0.27127  0.39842  0.25923  1.0000
  C   C172      1.0  0.23781  0.48366  0.28462  1.0000
  H   H314      1.0  0.42531  0.39871  0.28365  1.0000
  C   C173      1.0  0.47902  0.06272  0.28346  1.0000
  S   S45       1.0  0.13142  0.27701  0.49429  1.0000
  C   C174      1.0  0.38579  0.03366  0.31258  1.0000
  C   C175      1.0  0.47385  0.30790  0.29537  1.0000
  H   H315      1.0  0.21125  0.22311  0.49474  1.0000
  H   H316      1.0  0.39696  0.12318  0.41437  1.0000
  H   H317      1.0  0.36323  0.34375  0.27691  1.0000
  H   H318      1.0  0.38459  0.32069  0.29335  1.0000
  H   H319      1.0  0.15112  0.43651  0.33016  1.0000
  C   C176      1.0  0.37701  0.26917  0.27153  1.0000
  H   H320      1.0  0.19982  0.39918  0.45547  1.0000
  H   H321      1.0  0.27903  0.26676  0.27430  1.0000
  H   H322      1.0  0.23755  0.50347  0.40911  1.0000
  H   H323      1.0  0.49735  0.08325  0.28180  1.0000
  H   H324      1.0  0.28870  0.35212  0.30474  1.0000
  H   H325      1.0  0.24958  0.21717  0.50068  1.0000
  H   H326      1.0  0.12206  0.35442  0.27755  1.0000
  N   N11       1.0  0.33394  0.35114  0.29041  1.0000
  H   H327      1.0  0.15667  0.47921  0.31429  1.0000
  C   C177      1.0  0.23006  0.19917  0.49772  1.0000
  C   C178      1.0  0.14335  0.43617  0.31347  1.0000
  H   H328      1.0  0.34801  0.37965  0.31852  1.0000
  C   C179      1.0  0.35800  0.34885  0.29302  1.0000
  H   H329      1.0  0.19857  0.12916  0.49247  1.0000
  S   S46       1.0  0.27636  0.07375  0.49817  1.0000
  H   H330      1.0  0.19627  0.47302  0.31786  1.0000
  H   H331      1.0  0.30501  0.05130  0.33412  1.0000
  H   H332      1.0  0.15042  0.39981  0.37469  1.0000
  Fe  Fe20      1.0  0.23677  0.06887  0.50247  1.0000
  C   C180      1.0  0.02610  0.17818  0.49933  1.0000
  H   H333      1.0  0.21121  0.37571  0.45084  1.0000
  H   H334      1.0  0.48330  0.29537  0.29543  1.0000
  H   H335      1.0  0.46361  0.06599  0.29040  1.0000
  C   C181      1.0  0.24761  0.49278  0.34571  1.0000
  C   C182      1.0  0.33861  0.37078  0.27227  1.0000
  H   H336      1.0  0.37920  0.31055  0.32144  1.0000
  C   C183      1.0  0.20833  0.20262  0.49445  1.0000
  C   C184      1.0  0.37516  0.03803  0.33396  1.0000
  H   H337      1.0  0.42489  0.11245  0.28020  1.0000
  H   H338      1.0  0.44176  0.32101  0.27126  1.0000
  Fe  Fe21      1.0  0.25990  0.13190  0.50139  1.0000
  C   C185      1.0  0.46314  0.33757  0.27198  1.0000
  C   C186      1.0  0.38312  0.08598  0.27374  1.0000
  C   C187      1.0  0.25235  0.50106  0.41851  1.0000
  H   H339      1.0  0.38114  0.40176  0.27631  1.0000
  C   C188      1.0  0.36342  0.06117  0.26330  1.0000
  C   C189      1.0  0.46935  0.04775  0.26117  1.0000
  C   C190      1.0  0.31241  0.30679  0.26532  1.0000
  H   H340      1.0  0.37014  0.02486  0.29947  1.0000
  C   C191      1.0  0.26645  0.49384  0.27912  1.0000
  H   H341      1.0  0.17711  0.50480  0.27244  1.0000
  H   H342      1.0  0.50041  0.33725  0.27271  1.0000
  C   C192      1.0  0.13316  0.38911  0.25711  1.0000
  H   H343      1.0  0.01126  0.21386  0.46395  1.0000
  H   H344      1.0  0.35908  0.01738  0.33900  1.0000
  C   C193      1.0  0.28624  0.28006  0.25982  1.0000
  C   C194      1.0  0.40856  0.25507  0.26406  1.0000
  C   C195      1.0  0.26109  0.35604  0.25979  1.0000
  H   H345      1.0  0.39274  0.01910  0.31507  1.0000
  C   C196      1.0  0.06354  0.28250  0.48927  1.0000
  H   H346      1.0  0.43657  0.08243  0.25931  1.0000
  H   H347      1.0  0.23099  0.00721  0.44073  1.0000
  N   N12       1.0  0.20632  0.50233  0.29221  1.0000
  C   C197      1.0  0.00848  0.19922  0.47630  1.0000
  H   H348      1.0  0.05539  0.29609  0.49155  1.0000
  H   H349      1.0  0.22531  0.00772  0.46964  1.0000
  H   H350      1.0  0.34496  0.42036  0.25718  1.0000
  H   H351      1.0  0.47262  0.30674  0.26032  1.0000
  H   H352      1.0  0.04242  0.17617  0.50477  1.0000
  H   H353      1.0  0.18009  0.46285  0.25751  1.0000
  H   H354      1.0  0.34246  0.36329  0.25668  1.0000
  C   C198      1.0  0.49682  0.38182  0.25739  1.0000
  C   C199      1.0  0.36323  0.41953  0.25781  1.0000
  H   H355      1.0  0.27206  0.50619  0.26411  1.0000
  H   H356      1.0  0.28003  0.50665  0.29291  1.0000
  C   C200      1.0  0.19604  0.50545  0.27042  1.0000
  Fe  Fe22      1.0  0.23237  0.42425  0.69289  1.0000
  S   S47       1.0  0.19649  0.40305  0.67075  1.0000
  S   S48       1.0  0.26129  0.47088  0.69512  1.0000
  Fe  Fe23      1.0  0.22370  0.36960  0.70996  1.0000
  S   S49       1.0  0.18690  0.34433  0.68853  1.0000
  S   S50       1.0  0.23704  0.34553  0.73064  1.0000
  Fe  Fe24      1.0  0.20962  0.37344  0.66173  1.0000
  S   S51       1.0  0.21573  0.36652  0.62575  1.0000
  Fe  Fe25      1.0  0.17636  0.37566  0.69936  1.0000
  S   S52       1.0  0.13357  0.36283  0.70618  1.0000
  S   S53       1.0  0.24709  0.39653  0.68244  1.0000
  S   S54       1.0  0.21161  0.39902  0.72233  1.0000
  Fe  Fe26      1.0  0.40831  0.14785  0.69747  1.0000
  S   S55       1.0  0.43400  0.18525  0.71889  1.0000
  S   S56       1.0  0.39968  0.10440  0.70388  1.0000
  Fe  Fe27      1.0  0.39541  0.18013  0.66520  1.0000
  S   S57       1.0  0.42019  0.22006  0.68472  1.0000
  S   S58       1.0  0.37515  0.18544  0.63525  1.0000
  Fe  Fe28      1.0  0.45034  0.20773  0.68764  1.0000
  C   C201      1.0  0.26173  0.49514  0.67694  1.0000
  Fe  Fe29      1.0  0.40229  0.19536  0.71441  1.0000
  H   H357      1.0  0.47125  0.06373  0.72422  1.0000
  S   S59       1.0  0.42706  0.16945  0.66613  1.0000
  S   S60       1.0  0.37502  0.15605  0.69501  1.0000
  Fe  Fe30      1.0  0.14509  0.26039  0.52126  1.0000
  H   H358      1.0  0.40445  0.17937  0.52782  1.0000
  S   S61       1.0  0.14226  0.26730  0.55789  1.0000
  H   H359      1.0  0.06583  0.26284  0.59404  1.0000
  S   S62       1.0  0.25102  0.10239  0.52895  1.0000
  S   S63       1.0  0.31919  0.10898  0.54967  1.0000
  H   H360      1.0  0.21446  0.49574  0.69735  1.0000
  H   H361      1.0  0.23362  0.00949  0.51613  1.0000
  H   H362      1.0  0.50329  0.49521  0.73759  1.0000
  H   H363      1.0  0.38321  0.04973  0.71778  1.0000
  H   H364      1.0  0.19213  0.43548  0.60066  1.0000
  H   H365      1.0  0.33581  0.28813  0.66092  1.0000
  C   C202      1.0  0.40311  0.09220  0.72949  1.0000
  H   H366      1.0  0.25249  0.29484  0.54814  1.0000
  H   H367      1.0  0.42398  0.13204  0.74606  1.0000
  H   H368      1.0  0.38424  0.03083  0.75392  1.0000
  H   H369      1.0  0.32788  0.03027  0.73861  1.0000
  C   C203      1.0  0.38292  0.24999  0.72845  1.0000
  C   C204      1.0  0.37864  0.27214  0.73069  1.0000
  H   H370      1.0  0.38366  0.24222  0.71235  1.0000
  H   H371      1.0  0.37621  0.28139  0.71624  1.0000
  C   C205      1.0  0.39504  0.18693  0.53923  1.0000
  H   H372      1.0  0.48298  0.10778  0.70604  1.0000
  H   H373      1.0  0.13419  0.41994  0.64920  1.0000
  C   C206      1.0  0.35824  0.16298  0.61227  1.0000
  C   C207      1.0  0.34747  0.17173  0.59596  1.0000
  C   C208      1.0  0.33469  0.15511  0.57703  1.0000
  C   C209      1.0  0.33296  0.12969  0.57402  1.0000
  C   C210      1.0  0.34379  0.12097  0.59032  1.0000
  C   C211      1.0  0.35605  0.13731  0.60947  1.0000
  H   H374      1.0  0.34901  0.19153  0.59795  1.0000
  H   H375      1.0  0.32660  0.16217  0.56460  1.0000
  H   H376      1.0  0.34255  0.10134  0.58815  1.0000
  H   H377      1.0  0.36393  0.13013  0.62196  1.0000
  C   C212      1.0  0.11983  0.36708  0.73058  1.0000
  H   H378      1.0  0.40316  0.20973  0.56961  1.0000
  H   H379      1.0  0.22425  0.46697  0.66111  1.0000
  H   H380      1.0  0.39128  0.20161  0.53050  1.0000
  H   H381      1.0  0.46804  0.00919  0.73465  1.0000
  C   C213      1.0  0.34292  0.14197  0.75259  1.0000
  C   C214      1.0  0.37754  0.28240  0.75152  1.0000
  C   C215      1.0  0.07210  0.27692  0.51131  1.0000
  C   C216      1.0  0.19508  0.33853  0.60723  1.0000
  C   C217      1.0  0.20218  0.34023  0.58517  1.0000
  C   C218      1.0  0.18638  0.31865  0.56983  1.0000
  C   C219      1.0  0.16331  0.29501  0.57643  1.0000
  C   C220      1.0  0.15644  0.29309  0.59855  1.0000
  C   C221      1.0  0.17211  0.31476  0.61385  1.0000
  H   H382      1.0  0.21994  0.35848  0.57989  1.0000
  H   H383      1.0  0.19196  0.32041  0.55290  1.0000
  H   H384      1.0  0.13875  0.27481  0.60388  1.0000
  H   H385      1.0  0.16645  0.31308  0.63076  1.0000
  N   N13       1.0  0.05373  0.25197  0.54790  1.0000
  H   H386      1.0  0.45992  0.28184  0.67536  1.0000
  C   C222      1.0  0.07491  0.27764  0.56013  1.0000
  H   H387      1.0  0.48199  0.32323  0.70065  1.0000
  C   C223      1.0  0.06310  0.23214  0.54348  1.0000
  C   C224      1.0  0.05659  0.20980  0.56076  1.0000
  C   C225      1.0  0.33489  0.09544  0.74458  1.0000
  H   H388      1.0  0.21405  0.45467  0.71861  1.0000
  C   C226      1.0  0.08301  0.27374  0.58334  1.0000
  C   C227      1.0  0.10242  0.30169  0.59453  1.0000
  C   C228      1.0  0.09296  0.35880  0.73038  1.0000
  H   H389      1.0  0.13084  0.42359  0.73067  1.0000
  H   H390      1.0  0.30870  0.46247  0.59295  1.0000
  H   H391      1.0  0.44743  0.23895  0.73802  1.0000
  H   H392      1.0  0.09365  0.28749  0.55106  1.0000
  H   H393      1.0  0.06888  0.29324  0.56138  1.0000
  H   H394      1.0  0.46131  0.33256  0.74101  1.0000
  C   C229      1.0  0.14009  0.44628  0.72849  1.0000
  H   H395      1.0  0.05461  0.22059  0.52770  1.0000
  H   H396      1.0  0.08485  0.24383  0.54109  1.0000
  C   C230      1.0  0.23410  0.45133  0.60476  1.0000
  H   H397      1.0  0.06153  0.21859  0.57765  1.0000
  C   C231      1.0  0.28855  0.45935  0.59299  1.0000
  C   C232      1.0  0.28817  0.46380  0.55167  1.0000
  H   H398      1.0  0.14861  0.48166  0.75024  1.0000
  H   H399      1.0  0.23357  0.31131  0.54566  1.0000
  H   H400      1.0  0.16915  0.43738  0.65536  1.0000
  H   H401      1.0  0.09329  0.26211  0.58223  1.0000
  H   H402      1.0  0.10841  0.29840  0.61095  1.0000
  H   H403      1.0  0.12050  0.31332  0.58478  1.0000
  H   H404      1.0  0.09317  0.31426  0.59666  1.0000
  C   C233      1.0  0.46462  0.19991  0.58301  1.0000
  H   H405      1.0  0.09322  0.20999  0.55832  1.0000
  C   C234      1.0  0.28929  0.32235  0.70763  1.0000
  H   H406      1.0  0.03066  0.23112  0.57627  1.0000
  H   H407      1.0  0.06609  0.17884  0.56901  1.0000
  N   N14       1.0  0.16775  0.45859  0.72000  1.0000
  C   C235      1.0  0.22733  0.46241  0.75214  1.0000
  C   C236      1.0  0.07160  0.19505  0.55674  1.0000
  C   C237      1.0  0.25330  0.44784  0.61978  1.0000
  H   H408      1.0  0.14517  0.45394  0.67905  1.0000
  H   H409      1.0  0.43947  0.25126  0.63645  1.0000
  H   H410      1.0  0.48853  0.20942  0.64886  1.0000
  C   C238      1.0  0.21336  0.46666  0.73277  1.0000
  H   H411      1.0  0.33436  0.05488  0.71773  1.0000
  H   H412      1.0  0.28834  0.47691  0.53831  1.0000
  C   C239      1.0  0.41530  0.11001  0.74770  1.0000
  H   H413      1.0  0.30770  0.43330  0.66559  1.0000
  H   H414      1.0  0.38407  0.41473  0.75357  1.0000
  H   H415      1.0  0.42817  0.27753  0.68139  1.0000
  H   H416      1.0  0.24666  0.42561  0.61784  1.0000
  H   H417      1.0  0.30823  0.12011  0.72979  1.0000
  H   H418      1.0  0.47393  0.26659  0.64414  1.0000
  H   H419      1.0  0.47927  0.23835  0.61659  1.0000
  H   H420      1.0  0.46821  0.21857  0.55126  1.0000
  C   C240      1.0  0.30084  0.28404  0.73442  1.0000
  H   H421      1.0  0.42103  0.16817  0.56118  1.0000
  C   C241      1.0  0.20560  0.43320  0.61201  1.0000
  H   H422      1.0  0.16160  0.49092  0.70840  1.0000
  C   C242      1.0  0.32138  0.16315  0.73103  1.0000
  C   C243      1.0  0.26362  0.35924  0.75016  1.0000
  H   H423      1.0  0.27520  0.32081  0.72023  1.0000
  H   H424      1.0  0.34745  0.10470  0.73005  1.0000
  C   C244      1.0  0.13759  0.45873  0.75047  1.0000
  H   H425      1.0  0.27495  0.43699  0.58865  1.0000
  H   H426      1.0  0.12717  0.44840  0.71633  1.0000
  H   H427      1.0  0.43598  0.27125  0.72159  1.0000
  H   H428      1.0  0.50144  0.05335  0.73907  1.0000
  C   C245      1.0  0.42991  0.17126  0.60818  1.0000
  H   H429      1.0  0.45287  0.30802  0.66801  1.0000
  H   H430      1.0  0.50188  0.33874  0.73357  1.0000
  H   H431      1.0  0.31437  0.08696  0.73840  1.0000
  C   C246      1.0  0.02853  0.23926  0.56055  1.0000
  C   C247      1.0  0.30824  0.42569  0.64883  1.0000
  H   H432      1.0  0.00810  0.20187  0.53883  1.0000
  N   N15       1.0  0.28245  0.46580  0.61546  1.0000
  C   C248      1.0  0.49826  0.32010  0.74237  1.0000
  C   C249      1.0  0.39258  0.06368  0.73178  1.0000
  C   C250      1.0  0.33751  0.07061  0.75111  1.0000
  C   C251      1.0  0.26275  0.32660  0.67650  1.0000
  H   H433      1.0  0.28116  0.50219  0.60677  1.0000
  N   N16       1.0  0.31603  0.33211  0.71822  1.0000
  H   H434      1.0  0.03521  0.19380  0.55996  1.0000
  H   H435      1.0  0.10623  0.14035  0.54615  1.0000
  C   C252      1.0  0.32764  0.36194  0.72565  1.0000
  C   C253      1.0  0.33512  0.33059  0.70297  1.0000
  H   H436      1.0  0.45003  0.31795  0.70692  1.0000
  C   C254      1.0  0.28886  0.34113  0.68966  1.0000
  C   C255      1.0  0.35300  0.37479  0.74039  1.0000
  H   H437      1.0  0.31286  0.36441  0.73472  1.0000
  H   H438      1.0  0.06664  0.18499  0.54018  1.0000
  C   C256      1.0  0.34476  0.30449  0.67405  1.0000
  H   H439      1.0  0.46497  0.27268  0.61747  1.0000
  C   C257      1.0  0.36684  0.40631  0.74198  1.0000
  H   H440      1.0  0.46297  0.18183  0.57404  1.0000
  H   H441      1.0  0.18553  0.44906  0.69299  1.0000
  C   C258      1.0  0.46083  0.30745  0.70269  1.0000
  H   H442      1.0  0.18623  0.47067  0.75242  1.0000
  H   H443      1.0  0.37397  0.41540  0.72575  1.0000
  H   H444      1.0  0.33254  0.37538  0.71127  1.0000
  H   H445      1.0  0.34673  0.35020  0.69404  1.0000
  H   H446      1.0  0.35023  0.32882  0.71266  1.0000
  H   H447      1.0  0.31278  0.31176  0.67211  1.0000
  H   H448      1.0  0.35946  0.32430  0.66665  1.0000
  H   H449      1.0  0.32881  0.43741  0.64300  1.0000
  H   H450      1.0  0.30530  0.34755  0.67825  1.0000
  H   H451      1.0  0.36726  0.36938  0.73415  1.0000
  H   H452      1.0  0.24949  0.45089  0.63709  1.0000
  H   H453      1.0  0.33124  0.32304  0.74733  1.0000
  H   H454      1.0  0.28718  0.24682  0.75289  1.0000
  C   C259      1.0  0.23328  0.29180  0.54243  1.0000
  S   S64       1.0  0.37258  0.31056  0.75360  1.0000
  C   C260      1.0  0.18458  0.45735  0.73816  1.0000
  S   S65       1.0  0.49322  0.24315  0.68742  1.0000
  C   C261      1.0  0.32318  0.30717  0.68501  1.0000
  H   H455      1.0  0.35498  0.29862  0.68619  1.0000
  H   H456      1.0  0.26265  0.34097  0.66444  1.0000
  C   C262      1.0  0.08121  0.36207  0.74920  1.0000
  H   H457      1.0  0.23882  0.47299  0.60488  1.0000
  C   C263      1.0  0.48673  0.10298  0.74104  1.0000
  C   C264      1.0  0.24134  0.48771  0.66149  1.0000
  C   C265      1.0  0.44973  0.29271  0.68052  1.0000
  H   H458      1.0  0.45924  0.11026  0.72260  1.0000
  H   H459      1.0  0.46587  0.27462  0.71381  1.0000
  H   H460      1.0  0.03329  0.24258  0.51631  1.0000
  H   H461      1.0  0.14696  0.40261  0.66474  1.0000
  H   H462      1.0  0.35824  0.15095  0.73991  1.0000
  C   C266      1.0  0.14504  0.43482  0.68288  1.0000
  H   H463      1.0  0.28450  0.49893  0.63491  1.0000
  C   C267      1.0  0.12376  0.15893  0.53966  1.0000
  H   H464      1.0  0.18845  0.49031  0.67907  1.0000
  C   C268      1.0  0.14924  0.42301  0.66177  1.0000
  H   H465      1.0  0.22784  0.50093  0.63396  1.0000
  H   H466      1.0  0.16172  0.42012  0.70673  1.0000
  C   C269      1.0  0.43900  0.21772  0.60192  1.0000
  N   N17       1.0  0.46899  0.29912  0.74286  1.0000
  H   H467      1.0  0.43174  0.21916  0.55378  1.0000
  H   H468      1.0  0.43359  0.30032  0.74827  1.0000
  H   H469      1.0  0.49311  0.13839  0.72277  1.0000
  C   C270      1.0  0.28768  0.47651  0.57377  1.0000
  N   N18       1.0  0.43799  0.19302  0.59108  1.0000
  C   C271      1.0  0.32491  0.04727  0.73373  1.0000
  H   H470      1.0  0.30876  0.28678  0.69151  1.0000
  H   H471      1.0  0.12506  0.41933  0.68861  1.0000
  C   C272      1.0  0.48005  0.11551  0.72192  1.0000
  C   C273      1.0  0.04822  0.26094  0.52632  1.0000
  H   H472      1.0  0.44769  0.06618  0.74022  1.0000
  H   H473      1.0  0.31561  0.28081  0.72617  1.0000
  H   H474      1.0  0.11730  0.16514  0.52487  1.0000
  H   H475      1.0  0.30242  0.15939  0.72395  1.0000
  H   H476      1.0  0.26006  0.30805  0.66754  1.0000
  H   H477      1.0  0.39737  0.16664  0.57944  1.0000
  C   C274      1.0  0.45748  0.28669  0.72043  1.0000
  H   H478      1.0  0.08109  0.34971  0.71554  1.0000
  H   H479      1.0  0.28017  0.30107  0.70060  1.0000
  H   H480      1.0  0.37572  0.16911  0.54409  1.0000
  H   H481      1.0  0.22484  0.48905  0.72946  1.0000
  H   H482      1.0  0.23085  0.28734  0.52451  1.0000
  N   N19       1.0  0.18643  0.21513  0.56012  1.0000
  C   C275      1.0  0.16073  0.20905  0.54956  1.0000
  C   C276      1.0  0.20892  0.24048  0.55001  1.0000
  C   C277      1.0  0.18945  0.19087  0.55439  1.0000
  C   C278      1.0  0.18727  0.21882  0.58475  1.0000
  C   C279      1.0  0.17144  0.23135  0.59429  1.0000
  C   C280      1.0  0.13541  0.18235  0.55707  1.0000
  C   C281      1.0  0.21623  0.19393  0.56096  1.0000
  C   C282      1.0  0.21052  0.26829  0.55458  1.0000
  H   H483      1.0  0.47843  0.20398  0.59710  1.0000
  C   C283      1.0  0.17937  0.24083  0.61819  1.0000
  S   S66       1.0  0.39171  0.21019  0.74528  1.0000
  C   C284      1.0  0.21467  0.16618  0.55904  1.0000
  H   H484      1.0  0.16176  0.20808  0.53140  1.0000
  H   H485      1.0  0.15743  0.22633  0.55243  1.0000
  H   H486      1.0  0.22827  0.24419  0.55605  1.0000
  H   H487      1.0  0.20837  0.23715  0.53194  1.0000
  H   H488      1.0  0.18653  0.18624  0.53643  1.0000
  H   H489      1.0  0.17378  0.17180  0.56207  1.0000
  H   H490      1.0  0.17962  0.19867  0.59285  1.0000
  H   H491      1.0  0.20816  0.23176  0.59084  1.0000
  H   H492      1.0  0.14997  0.21568  0.59364  1.0000
  H   H493      1.0  0.17423  0.24930  0.58519  1.0000
  H   H494      1.0  0.13876  0.17456  0.57252  1.0000
  H   H495      1.0  0.12001  0.18737  0.56053  1.0000
  H   H496      1.0  0.22234  0.20210  0.57802  1.0000
  H   H497      1.0  0.23186  0.20812  0.54977  1.0000
  H   H498      1.0  0.19215  0.26735  0.54934  1.0000
  H   H499      1.0  0.21445  0.27406  0.57227  1.0000
  C   C285      1.0  0.46848  0.07094  0.74042  1.0000
  Fe  Fe31      1.0  0.29141  0.10903  0.52320  1.0000
  H   H500      1.0  0.29088  0.36009  0.69737  1.0000
  H   H501      1.0  0.16723  0.24898  0.62460  1.0000
  H   H502      1.0  0.17609  0.22329  0.62832  1.0000
  H   H503      1.0  0.20047  0.25769  0.61963  1.0000
  S   S67       1.0  0.11588  0.21576  0.51166  1.0000
  C   C286      1.0  0.28963  0.42881  0.63327  1.0000
  H   H504      1.0  0.23446  0.16924  0.56255  1.0000
  H   H505      1.0  0.20057  0.15141  0.57087  1.0000
  H   H506      1.0  0.20829  0.15710  0.54220  1.0000
  H   H507      1.0  0.30616  0.46248  0.55057  1.0000
  C   C287      1.0  0.29102  0.49583  0.61877  1.0000
  H   H508      1.0  0.24591  0.32030  0.68752  1.0000
  H   H509      1.0  0.26998  0.47823  0.57380  1.0000
  H   H510      1.0  0.23460  0.44437  0.58781  1.0000
  H   H511      1.0  0.19962  0.41105  0.61188  1.0000
  H   H512      1.0  0.18716  0.50233  0.72842  1.0000
  C   C288      1.0  0.29697  0.45940  0.63260  1.0000
  C   C289      1.0  0.39310  0.05289  0.75227  1.0000
  H   H513      1.0  0.27774  0.40210  0.74476  1.0000
  H   H514      1.0  0.30185  0.40350  0.64964  1.0000
  H   H515      1.0  0.17496  0.43583  0.74416  1.0000
  H   H516      1.0  0.28219  0.27404  0.72453  1.0000
  H   H517      1.0  0.29056  0.42082  0.61683  1.0000
  H   H518      1.0  0.35856  0.07719  0.75268  1.0000
  H   H519      1.0  0.26942  0.41549  0.63937  1.0000
  C   C290      1.0  0.16619  0.44053  0.70088  1.0000
  C   C291      1.0  0.19836  0.49987  0.69510  1.0000
  H   H520      1.0  0.44374  0.23418  0.59013  1.0000
  C   C292      1.0  0.45891  0.23160  0.62150  1.0000
  H   H521      1.0  0.02403  0.25542  0.56532  1.0000
  H   H522      1.0  0.03952  0.27402  0.52914  1.0000
  H   H523      1.0  0.30337  0.03891  0.73195  1.0000
  H   H524      1.0  0.43402  0.13040  0.63002  1.0000
  H   H525      1.0  0.47963  0.24328  0.57408  1.0000
  C   C293      1.0  0.41654  0.12257  0.61876  1.0000
  H   H526      1.0  0.41250  0.16862  0.61707  1.0000
  C   C294      1.0  0.28093  0.38770  0.75364  1.0000
  H   H527      1.0  0.45346  0.21728  0.63523  1.0000
  H   H528      1.0  0.15552  0.38509  0.75040  1.0000
  C   C295      1.0  0.31219  0.31536  0.73828  1.0000
  H   H529      1.0  0.41108  0.10174  0.61233  1.0000
  H   H530      1.0  0.40512  0.13251  0.58862  1.0000
  H   H531      1.0  0.41906  0.21164  0.60780  1.0000
  C   C296      1.0  0.13490  0.37882  0.74991  1.0000
  H   H532      1.0  0.44596  0.17794  0.62077  1.0000
  H   H533      1.0  0.33554  0.16868  0.71759  1.0000
  C   C297      1.0  0.45923  0.25712  0.63035  1.0000
  H   H534      1.0  0.39969  0.12046  0.62809  1.0000
  H   H535      1.0  0.24761  0.46829  0.74749  1.0000
  H   H536      1.0  0.29377  0.46537  0.64928  1.0000
  H   H537      1.0  0.29925  0.31782  0.74984  1.0000
  C   C298      1.0  0.41298  0.20146  0.55936  1.0000
  C   C299      1.0  0.47862  0.22443  0.56746  1.0000
  H   H538      1.0  0.27034  0.44277  0.54929  1.0000
  H   H539      1.0  0.43939  0.14298  0.59091  1.0000
  C   C300      1.0  0.41721  0.18102  0.57277  1.0000
  H   H540      1.0  0.08705  0.29736  0.51867  1.0000
  C   C301      1.0  0.38609  0.23791  0.74706  1.0000
  C   C302      1.0  0.42280  0.14205  0.59976  1.0000
  C   C303      1.0  0.45540  0.31393  0.75077  1.0000
  H   H541      1.0  0.44704  0.01885  0.72088  1.0000
  C   C304      1.0  0.46402  0.25115  0.74991  1.0000
  H   H542      1.0  0.32931  0.18092  0.74295  1.0000
  H   H543      1.0  0.08140  0.26465  0.50822  1.0000
  C   C305      1.0  0.44965  0.00967  0.73584  1.0000
  C   C306      1.0  0.31684  0.13717  0.74229  1.0000
  H   H544      1.0  0.31864  0.47192  0.63019  1.0000
  H   H545      1.0  0.30511  0.49790  0.57479  1.0000
  H   H546      1.0  0.48239  0.25694  0.74140  1.0000
  H   H547      1.0  0.35318  0.41260  0.74819  1.0000
  H   H548      1.0  0.20336  0.43950  0.62872  1.0000
  C   C307      1.0  0.17810  0.48821  0.71379  1.0000
  H   H549      1.0  0.06051  0.35551  0.74874  1.0000
  H   H550      1.0  0.09992  0.45522  0.74252  1.0000
  H   H551      1.0  0.13829  0.15324  0.53482  1.0000
  H   H552      1.0  0.38354  0.13288  0.75561  1.0000
  C   C308      1.0  0.50110  0.49833  0.75523  1.0000
  H   H553      1.0  0.09700  0.42538  0.75563  1.0000
  H   H554      1.0  0.30242  0.13283  0.75526  1.0000
  C   C309      1.0  0.10869  0.44835  0.75519  1.0000
  Fe  Fe32      1.0  0.37402  0.33119  0.78643  1.0000
  S   S68       1.0  0.39481  0.33262  0.81780  1.0000
  C   C310      1.0  0.38483  0.24807  0.76785  1.0000
  Fe  Fe33      1.0  0.35672  0.36948  0.80535  1.0000
  S   S69       1.0  0.37681  0.37411  0.83826  1.0000
  S   S70       1.0  0.33568  0.39252  0.79748  1.0000
  Fe  Fe34      1.0  0.41093  0.37876  0.81860  1.0000
  S   S71       1.0  0.45587  0.40758  0.82410  1.0000
  Fe  Fe35      1.0  0.35919  0.32790  0.83502  1.0000
  S   S72       1.0  0.33591  0.29275  0.85908  1.0000
  S   S73       1.0  0.39198  0.37727  0.78625  1.0000
  S   S74       1.0  0.33734  0.32345  0.80311  1.0000
  C   C311      1.0  0.12441  0.34397  0.82865  1.0000
  S   S75       1.0  0.40448  0.05812  0.79702  1.0000
  Fe  Fe36      1.0  0.03957  0.36537  0.79929  1.0000
  S   S76       1.0  0.08262  0.37879  0.79267  1.0000
  S   S77       1.0  0.03136  0.37263  0.83402  1.0000
  C   C312      1.0  0.28834  0.12462  0.94465  1.0000
  H   H555      1.0  0.47779  0.50366  0.81366  1.0000
  S   S78       1.0  0.00564  0.32119  0.79742  1.0000
  Fe  Fe37      1.0  0.26047  0.24345  0.97794  1.0000
  S   S79       1.0  0.22268  0.20451  0.96729  1.0000
  S   S80       1.0  0.28977  0.27858  0.95584  1.0000
  H   H556      1.0  0.32854  0.06226  0.76706  1.0000
  S   S81       1.0  0.24006  0.25582  0.00267  1.0000
  H   H557      1.0  0.24896  0.09283  0.93445  1.0000
  H   H558      1.0  0.45610  0.35951  0.77057  1.0000
  H   H559      1.0  0.05118  0.27016  0.90889  1.0000
  C   C313      1.0  0.29134  0.07678  0.95880  1.0000
  N   N20       1.0  0.34246  0.11742  0.76229  1.0000
  H   H560      1.0  0.32460  0.04503  0.97786  1.0000
  H   H561      1.0  0.46237  0.47498  0.86772  1.0000
  H   H562      1.0  0.10699  0.36441  0.85731  1.0000
  N   N21       1.0  0.47270  0.05589  0.75872  1.0000
  C   C314      1.0  0.46829  0.06772  0.82166  1.0000
  H   H563      1.0  0.22136  0.04423  0.91974  1.0000
  H   H564      1.0  0.13086  0.33929  0.84424  1.0000
  C   C315      1.0  0.31947  0.06129  0.97775  1.0000
  H   H565      1.0  0.29264  0.06448  0.77275  1.0000
  H   H566      1.0  0.47737  0.24324  0.78086  1.0000
  H   H567      1.0  0.27689  0.02673  0.87915  1.0000
  H   H568      1.0  0.25454  0.31879  0.75960  1.0000
  C   C316      1.0  0.27721  0.07161  0.91954  1.0000
  H   H569      1.0  0.26782  0.07976  0.90857  1.0000
  S   S82       1.0  0.01297  0.27747  0.95494  1.0000
  H   H570      1.0  0.29885  0.08625  0.91806  1.0000
  H   H571      1.0  0.06884  0.16025  0.97472  1.0000
  H   H572      1.0  0.08299  0.30160  0.90832  1.0000
  C   C317      1.0  0.21861  0.03961  0.93738  1.0000
  C   C318      1.0  0.37041  0.12714  0.76993  1.0000
  C   C319      1.0  0.47715  0.44354  0.81917  1.0000
  C   C320      1.0  0.46765  0.46138  0.81684  1.0000
  C   C321      1.0  0.32462  0.10703  0.78169  1.0000
  C   C322      1.0  0.46265  0.05047  0.80055  1.0000
  H   H573      1.0  0.44662  0.45315  0.81731  1.0000
  H   H574      1.0  0.27993  0.27123  0.76509  1.0000
  C   C323      1.0  0.32296  0.28951  0.88588  1.0000
  C   C324      1.0  0.33018  0.31237  0.89984  1.0000
  C   C325      1.0  0.31966  0.30856  0.92101  1.0000
  C   C326      1.0  0.30179  0.28192  0.92864  1.0000
  C   C327      1.0  0.29427  0.25911  0.91455  1.0000
  C   C328      1.0  0.30485  0.26291  0.89340  1.0000
  H   H575      1.0  0.34427  0.33293  0.89451  1.0000
  H   H576      1.0  0.32571  0.32639  0.93172  1.0000
  H   H577      1.0  0.28056  0.23850  0.92005  1.0000
  H   H578      1.0  0.29909  0.24503  0.88284  1.0000
  H   H579      1.0  0.47331  0.50283  0.88778  1.0000
  H   H580      1.0  0.02763  0.31371  0.99536  1.0000
  C   C329      1.0  0.24452  0.04489  0.94864  1.0000
  C   C330      1.0  0.26799  0.34084  0.76199  1.0000
  H   H581      1.0  0.04804  0.26892  0.83231  1.0000
  C   C331      1.0  0.28991  0.35074  0.77656  1.0000
  H   H582      1.0  0.04944  0.34534  0.86688  1.0000
  C   C332      1.0  0.23957  0.28957  0.91649  1.0000
  H   H583      1.0  0.04600  0.32138  0.82493  1.0000
  H   H584      1.0  0.37981  0.27792  0.78621  1.0000
  H   H585      1.0  0.30514  0.05890  0.88906  1.0000
  H   H586      1.0  0.47648  0.28527  0.77342  1.0000
  H   H587      1.0  0.40663  0.13877  0.80473  1.0000
  H   H588      1.0  0.01375  0.13798  0.93201  1.0000
  H   H589      1.0  0.09998  0.32388  0.87297  1.0000
  H   H590      1.0  0.38717  0.23878  0.78234  1.0000
  H   H591      1.0  0.03575  0.30539  0.85011  1.0000
  H   H592      1.0  0.42520  0.11315  0.78218  1.0000
  C   C333      1.0  0.47161  0.06891  0.78022  1.0000
  C   C334      1.0  0.33712  0.39663  0.86526  1.0000
  H   H593      1.0  0.02893  0.16819  0.97733  1.0000
  H   H594      1.0  0.07979  0.39675  0.86189  1.0000
  S   S83       1.0  0.22182  0.13793  0.98849  1.0000
  H   H595      1.0  0.34847  0.41245  0.85292  1.0000
  H   H596      1.0  0.26680  0.14221  0.92984  1.0000
  N   N22       1.0  0.27392  0.32202  0.86143  1.0000
  C   C335      1.0  0.28357  0.30951  0.84483  1.0000
  C   C336      1.0  0.29720  0.34879  0.87054  1.0000
  C   C337      1.0  0.26274  0.30229  0.88014  1.0000
  C   C338      1.0  0.25275  0.32657  0.85214  1.0000
  C   C339      1.0  0.25418  0.33325  0.82742  1.0000
  C   C340      1.0  0.26324  0.27915  0.83745  1.0000
  C   C341      1.0  0.25554  0.31299  0.90081  1.0000
  C   C342      1.0  0.31296  0.37179  0.85407  1.0000
  C   C343      1.0  0.46309  0.27650  0.75869  1.0000
  C   C344      1.0  0.23520  0.34277  0.82122  1.0000
  C   C345      1.0  0.27177  0.27063  0.81683  1.0000
  H   H597      1.0  0.04485  0.28329  0.80740  1.0000
  H   H598      1.0  0.30119  0.30983  0.85157  1.0000
  H   H599      1.0  0.29085  0.32213  0.83004  1.0000
  H   H600      1.0  0.29076  0.35840  0.88302  1.0000
  H   H601      1.0  0.31134  0.34452  0.87915  1.0000
  H   H602      1.0  0.27688  0.29608  0.88559  1.0000
  H   H603      1.0  0.24445  0.28275  0.87465  1.0000
  H   H604      1.0  0.23274  0.30794  0.85418  1.0000
  H   H605      1.0  0.25251  0.34339  0.86165  1.0000
  H   H606      1.0  0.24863  0.31457  0.81714  1.0000
  H   H607      1.0  0.27417  0.34956  0.82271  1.0000
  H   H608      1.0  0.26149  0.26491  0.85051  1.0000
  H   H609      1.0  0.24342  0.27604  0.83424  1.0000
  H   H610      1.0  0.24378  0.32238  0.89639  1.0000
  H   H611      1.0  0.27380  0.32867  0.90993  1.0000
  H   H612      1.0  0.32013  0.36442  0.84052  1.0000
  H   H613      1.0  0.30062  0.37952  0.84737  1.0000
  H   H614      1.0  0.34879  0.15866  0.76523  1.0000
  H   H615      1.0  0.29750  0.16704  0.94359  1.0000
  C   C346      1.0  0.29503  0.08478  0.77695  1.0000
  H   H616      1.0  0.21455  0.32662  0.82485  1.0000
  H   H617      1.0  0.24069  0.36230  0.83025  1.0000
  H   H618      1.0  0.23634  0.34671  0.80340  1.0000
  H   H619      1.0  0.29082  0.27181  0.82003  1.0000
  H   H620      1.0  0.25667  0.24896  0.81193  1.0000
  H   H621      1.0  0.27393  0.28423  0.80316  1.0000
  C   C347      1.0  0.30753  0.37919  0.77968  1.0000
  C   C348      1.0  0.03915  0.27998  0.82484  1.0000
  H   H622      1.0  0.27752  0.05857  0.87561  1.0000
  C   C349      1.0  0.08104  0.38607  0.87649  1.0000
  H   H623      1.0  0.22883  0.47554  0.76646  1.0000
  H   H624      1.0  0.37059  0.14885  0.80040  1.0000
  H   H625      1.0  0.06891  0.38758  0.88947  1.0000
  H   H626      1.0  0.32557  0.12476  0.79077  1.0000
  H   H627      1.0  0.25758  0.06428  0.79340  1.0000
  H   H628      1.0  0.10060  0.14875  0.98765  1.0000
  H   H629      1.0  0.27633  0.03185  0.91929  1.0000
  H   H630      1.0  0.21235  0.05307  0.94520  1.0000
  Fe  Fe38      1.0  0.38767  0.01273  0.80473  1.0000
  H   H631      1.0  0.46111  0.05388  0.83582  1.0000
  C   C350      1.0  0.08140  0.13955  0.99598  1.0000
  H   H632      1.0  0.23573  0.29797  0.93159  1.0000
  C   C351      1.0  0.47818  0.49662  0.87207  1.0000
  H   H633      1.0  0.33182  0.09771  0.79371  1.0000
  H   H634      1.0  0.45791  0.07930  0.82117  1.0000
  C   C352      1.0  0.44766  0.34068  0.78050  1.0000
  H   H635      1.0  0.42599  0.32802  0.77730  1.0000
  N   N23       1.0  0.07759  0.32352  0.84454  1.0000
  C   C353      1.0  0.13882  0.33954  0.80997  1.0000
  C   C354      1.0  0.08588  0.35262  0.85184  1.0000
  C   C355      1.0  0.08250  0.30875  0.86269  1.0000
  C   C356      1.0  0.05921  0.29132  0.87818  1.0000
  C   C357      1.0  0.12322  0.38236  0.76867  1.0000
  C   C358      1.0  0.07079  0.35562  0.87102  1.0000
  C   C359      1.0  0.06839  0.28297  0.89849  1.0000
  C   C360      1.0  0.38067  0.27026  0.77009  1.0000
  H   H636      1.0  0.01843  0.45140  0.79269  1.0000
  C   C361      1.0  0.48544  0.49007  0.81473  1.0000
  C   C362      1.0  0.49938  0.05905  0.75612  1.0000
  H   H637      1.0  0.08418  0.36392  0.83778  1.0000
  H   H638      1.0  0.08800  0.29414  0.85584  1.0000
  C   C363      1.0  0.22012  0.06536  0.99694  1.0000
  H   H639      1.0  0.04953  0.30239  0.88385  1.0000
  C   C364      1.0  0.28329  0.04728  0.88682  1.0000
  S   S84       1.0  0.16430  0.21449  0.98170  1.0000
  H   H640      1.0  0.25069  0.27956  0.92129  1.0000
  H   H641      1.0  0.07381  0.34689  0.88606  1.0000
  H   H642      1.0  0.10191  0.39682  0.88254  1.0000
  C   C365      1.0  0.06061  0.13896  0.98056  1.0000
  H   H643      1.0  0.07734  0.27068  0.89381  1.0000
  H   H644      1.0  0.04330  0.18520  0.91903  1.0000
  H   H645      1.0  0.31596  0.41965  0.77101  1.0000
  H   H646      1.0  0.44104  0.03554  0.79915  1.0000
  H   H647      1.0  0.22029  0.27372  0.90881  1.0000
  H   H648      1.0  0.20625  0.04366  0.99321  1.0000
  H   H649      1.0  0.46181  0.21415  0.76182  1.0000
  C   C366      1.0  0.09656  0.21713  0.98504  1.0000
  C   C367      1.0  0.13618  0.21446  0.99228  1.0000
  C   C368      1.0  0.40447  0.07063  0.77063  1.0000
  N   N24       1.0  0.26930  0.07154  0.94299  1.0000
  H   H650      1.0  0.24855  0.03000  0.90592  1.0000
  H   H651      1.0  0.13272  0.34383  0.79399  1.0000
  H   H652      1.0  0.44179  0.22413  0.77642  1.0000
  H   H653      1.0  0.30199  0.13008  0.95903  1.0000
  C   C369      1.0  0.27020  0.04338  0.90889  1.0000
  H   H654      1.0  0.47228  0.03839  0.80218  1.0000
  H   H655      1.0  0.12433  0.22115  0.96065  1.0000
  C   C370      1.0  0.29869  0.05434  0.95966  1.0000
  S   S85       1.0  0.01596  0.38231  0.78473  1.0000
  H   H656      1.0  0.28636  0.08994  0.76312  1.0000
  H   H657      1.0  0.45124  0.34730  0.79807  1.0000
  H   H658      1.0  0.33772  0.08149  0.97492  1.0000
  H   H659      1.0  0.08415  0.21989  0.97361  1.0000
  H   H660      1.0  0.02742  0.32611  0.93058  1.0000
  H   H661      1.0  0.29319  0.33638  0.78537  1.0000
  C   C371      1.0  0.00866  0.31301  0.89844  1.0000
  C   C372      1.0  0.38357  0.15215  0.78645  1.0000
  H   H662      1.0  0.38812  0.17143  0.77834  1.0000
  H   H663      1.0  0.13510  0.39157  0.78347  1.0000
  H   H664      1.0  0.05785  0.12503  0.96653  1.0000
  H   H665      1.0  0.04625  0.15373  0.94396  1.0000
  H   H666      1.0  0.35027  0.39034  0.87278  1.0000
  C   C373      1.0  0.26417  0.09481  0.94646  1.0000
  H   H667      1.0  0.48985  0.08250  0.82412  1.0000
  H   H668      1.0  0.33099  0.40607  0.87812  1.0000
  C   C374      1.0  0.27844  0.08083  0.79700  1.0000
  H   H669      1.0  0.28136  0.03374  0.96307  1.0000
  H   H670      1.0  0.30745  0.05329  0.94406  1.0000
  H   H671      1.0  0.25583  0.09358  0.96287  1.0000
  H   H672      1.0  0.10737  0.45668  0.77139  1.0000
  C   C375      1.0  0.03463  0.12976  0.99258  1.0000
  C   C376      1.0  0.02784  0.15412  0.94394  1.0000
  C   C377      1.0  0.40982  0.15697  0.79556  1.0000
  H   H673      1.0  0.13073  0.36620  0.82894  1.0000
  C   C378      1.0  0.09628  0.37387  0.76849  1.0000
  H   H674      1.0  0.16047  0.35382  0.81235  1.0000
  C   C379      1.0  0.27983  0.14585  0.94434  1.0000
  H   H675      1.0  0.31325  0.27774  0.76645  1.0000
  H   H676      1.0  0.08961  0.30482  0.81968  1.0000
  H   H677      1.0  0.37121  0.11014  0.77800  1.0000
  H   H678      1.0  0.08867  0.33397  0.81081  1.0000
  H   H679      1.0  0.48258  0.48002  0.76080  1.0000
  H   H680      1.0  0.04375  0.27202  0.86963  1.0000
  H   H681      1.0  0.30998  0.09616  0.95493  1.0000
  H   H682      1.0  0.28639  0.07996  0.97571  1.0000
  C   C380      1.0  0.21360  0.08531  0.99149  1.0000
  H   H683      1.0  0.29927  0.12670  0.92952  1.0000
  H   H684      1.0  0.01621  0.33384  0.89310  1.0000
  C   C381      1.0  0.23124  0.11376  0.99612  1.0000
  S   S86       1.0  0.27128  0.22176  0.00317  1.0000
  C   C382      1.0  0.09401  0.32568  0.82511  1.0000
  C   C383      1.0  0.30261  0.39759  0.76850  1.0000
  H   H685      1.0  0.19469  0.07862  0.98358  1.0000
  Fe  Fe39      1.0  0.20253  0.21587  0.99303  1.0000
  H   H686      1.0  0.26911  0.14475  0.95942  1.0000
  C   C384      1.0  0.46050  0.32393  0.77518  1.0000
  H   H687      1.0  0.24634  0.02673  0.94503  1.0000
  C   C385      1.0  0.41599  0.09925  0.76814  1.0000
  Fe  Fe40      1.0  0.23204  0.18326  0.99392  1.0000
  H   H688      1.0  0.45201  0.30610  0.78620  1.0000
  C   C386      1.0  0.04912  0.30843  0.83660  1.0000
  H   H689      1.0  0.45735  0.07606  0.77882  1.0000
  C   C387      1.0  0.11947  0.21787  0.97774  1.0000
  H   H690      1.0  0.24154  0.04426  0.96658  1.0000
  H   H691      1.0  0.27897  0.10024  0.80131  1.0000
  H   H692      1.0  0.44264  0.26739  0.76480  1.0000
  H   H693      1.0  0.13448  0.31796  0.80956  1.0000
  H   H694      1.0  0.48188  0.33736  0.77918  1.0000
  H   H695      1.0  0.41910  0.17535  0.80690  1.0000
  H   H696      1.0  0.04813  0.19919  0.94655  1.0000
  H   H697      1.0  0.28591  0.07466  0.81121  1.0000
  C   C388      1.0  0.01481  0.30852  0.91984  1.0000
  H   H698      1.0  0.42358  0.16084  0.78206  1.0000
  H   H699      1.0  0.31167  0.06204  0.99400  1.0000
  H   H700      1.0  0.45064  0.01390  0.77074  1.0000
  C   C389      1.0  0.03411  0.18198  0.93526  1.0000
  H   H701      1.0  0.21655  0.44040  0.75682  1.0000
  C   C390      1.0  0.01101  0.48493  0.79556  1.0000
  C   C391      1.0  0.46107  0.23208  0.76847  1.0000
  C   C392      1.0  0.01119  0.46155  0.80300  1.0000
  H   H702      1.0  0.01791  0.49234  0.77939  1.0000
  H   H703      1.0  0.49048  0.02089  0.77306  1.0000
  H   H704      1.0  0.47675  0.00865  0.82766  1.0000
  H   H705      1.0  0.43121  0.02498  0.75757  1.0000
  C   C393      1.0  0.50465  0.45479  0.81868  1.0000
  H   H706      1.0  0.49112  0.08786  0.78427  1.0000
  H   H707      1.0  0.03395  0.34722  0.00369  1.0000
  C   C394      1.0  0.45044  0.02601  0.75678  1.0000
  C   C395      1.0  0.01578  0.14928  0.96703  1.0000
  C   C396      1.0  0.19603  0.00970  0.93968  1.0000
  H   H708      1.0  0.01930  0.10528  0.95092  1.0000
  N   N25       1.0  0.01089  0.12373  0.97864  1.0000
  H   H709      1.0  0.01575  0.18251  0.93331  1.0000
  C   C397      1.0  0.50471  0.49840  0.87412  1.0000
  H   H710      1.0  0.34766  0.36707  0.75722  1.0000
  H   H711      1.0  0.02983  0.11128  0.00225  1.0000
  H   H712      1.0  0.07535  0.11827  0.00077  1.0000
  H   H713      1.0  0.50310  0.48413  0.88687  1.0000
  H   H714      1.0  0.14536  0.45224  0.76425  1.0000
  H   H715      1.0  0.03981  0.14680  0.00475  1.0000
  C   C398      1.0  0.00915  0.26106  0.82537  1.0000
  H   H716      1.0  0.48440  0.11229  0.75631  1.0000
  C   C399      1.0  0.29495  0.26915  0.75610  1.0000
  S   S87       1.0  0.06466  0.63166  0.22786  1.0000
  H   H717      1.0  0.07006  0.74138  0.00915  1.0000
  H   H718      1.0  0.01533  0.70244  0.15132  1.0000
  Fe  Fe41      1.0  0.02328  0.61307  0.21240  1.0000
  C   C400      1.0  0.05603  0.56486  0.20978  1.0000
  C   C401      1.0  0.06462  0.54707  0.19688  1.0000
  N   N26       1.0  0.06417  0.54843  0.17221  1.0000
  H   H719      1.0  0.03505  0.55772  0.20619  1.0000
  C   C402      1.0  0.08012  0.57862  0.16633  1.0000
  H   H720      1.0  0.06749  0.58783  0.16693  1.0000
  H   H721      1.0  0.02664  0.54621  0.17172  1.0000
  H   H722      1.0  0.06816  0.58702  0.20580  1.0000
  C   C403      1.0  0.08959  0.82459  0.00973  1.0000
  H   H723      1.0  0.08484  0.55337  0.20301  1.0000
  H   H724      1.0  0.08121  0.57244  0.13036  1.0000
  C   C404      1.0  0.09427  0.58566  0.14410  1.0000
  C   C405      1.0  0.03582  0.53532  0.16437  1.0000
  C   C406      1.0  0.05895  0.56289  0.23445  1.0000
  H   H725      1.0  0.09634  0.59078  0.17874  1.0000
  H   H726      1.0  0.08817  0.61940  0.13643  1.0000
  H   H727      1.0  0.04709  0.54106  0.23951  1.0000
  H   H728      1.0  0.08001  0.57163  0.23928  1.0000
  H   H729      1.0  0.05179  0.57495  0.24327  1.0000
  S   S88       1.0  0.01829  0.59131  0.17985  1.0000
  C   C407      1.0  0.10476  0.61577  0.13849  1.0000
  H   H730      1.0  0.03257  0.67758  0.10421  1.0000
  S   S89       1.0  0.06391  0.79157  0.01898  1.0000
  H   H731      1.0  0.05270  0.70892  0.17410  1.0000
  H   H732      1.0  0.03320  0.69986  0.19824  1.0000
  C   C408      1.0  0.03603  0.70915  0.18191  1.0000
  H   H733      1.0  0.05140  0.52556  0.20212  1.0000
  H   H734      1.0  0.07762  0.53371  0.14526  1.0000
  Fe  Fe42      1.0  0.02023  0.75744  0.01157  1.0000
  C   C409      1.0  0.07659  0.53289  0.16333  1.0000
  H   H735      1.0  0.09750  0.54316  0.16944  1.0000
  H   H736      1.0  0.04127  0.73097  0.18394  1.0000
  C   C410      1.0  0.08179  0.65922  0.24755  1.0000
  H   H737      1.0  0.08892  0.75868  0.20636  1.0000
  H   H738      1.0  0.03870  0.55612  0.13384  1.0000
  C   C411      1.0  0.03097  0.53477  0.13941  1.0000
  H   H739      1.0  0.04029  0.52518  0.13026  1.0000
  H   H740      1.0  0.10131  0.79285  0.21799  1.0000
  H   H741      1.0  0.02385  0.51392  0.17018  1.0000
  C   C412      1.0  0.01146  0.66643  0.10097  1.0000
  H   H742      1.0  0.05180  0.66957  0.24981  1.0000
  C   C413      1.0  0.10713  0.77896  0.21032  1.0000
  H   H743      1.0  0.01447  0.69152  0.07348  1.0000
  H   H744      1.0  0.11140  0.58278  0.14509  1.0000
  H   H745      1.0  0.11352  0.76526  0.24078  1.0000
  H   H746      1.0  0.11541  0.65430  0.24915  1.0000
  S   S90       1.0  0.00899  0.63497  0.13591  1.0000
  C   C414      1.0  0.11568  0.83557  0.01781  1.0000
  H   H747      1.0  0.11731  0.78792  0.19482  1.0000
  H   H748      1.0  0.39603  0.95955  0.07707  1.0000
  C   C415      1.0  0.40059  0.92597  0.04629  1.0000
  H   H749      1.0  0.39552  0.90477  0.07619  1.0000
  H   H750      1.0  0.46405  0.93680  0.12867  1.0000
  C   C416      1.0  0.30411  0.94899  0.11115  1.0000
  H   H751      1.0  0.48457  0.62503  0.25217  1.0000
  H   H752      1.0  0.16133  0.80890  0.21550  1.0000
  C   C417      1.0  0.21085  0.84536  0.23378  1.0000
  H   H753      1.0  0.44753  0.90006  0.12321  1.0000
  C   C418      1.0  0.26352  0.98868  0.11182  1.0000
  C   C419      1.0  0.10698  0.66597  0.25527  1.0000
  H   H754      1.0  0.36922  0.91006  0.06901  1.0000
  H   H755      1.0  0.50021  0.54032  0.14250  1.0000
  C   C420      1.0  0.44465  0.91703  0.12880  1.0000
  C   C421      1.0  0.31375  0.98250  0.07491  1.0000
  H   H756      1.0  0.18812  0.50777  0.22573  1.0000
  H   H757      1.0  0.16424  0.71605  0.23802  1.0000
  H   H758      1.0  0.30589  0.89350  0.10369  1.0000
  H   H759      1.0  0.11548  0.62055  0.12290  1.0000
  H   H760      1.0  0.11859  0.63003  0.15159  1.0000
  H   H761      1.0  0.24288  0.87649  0.25511  1.0000
  H   H762      1.0  0.28113  0.98912  0.10562  1.0000
  H   H763      1.0  0.26150  0.74358  0.25365  1.0000
  Fe  Fe43      1.0  0.38123  0.99301  0.21226  1.0000
  H   H764      1.0  0.46370  0.92730  0.19953  1.0000
  H   H765      1.0  0.32383  0.87721  0.09572  1.0000
  H   H766      1.0  0.42228  0.93494  0.04594  1.0000
  H   H767      1.0  0.23617  0.75204  0.25447  1.0000
  H   H768      1.0  0.22307  0.88812  0.24198  1.0000
  C   C422      1.0  0.29292  0.87580  0.23977  1.0000
  C   C423      1.0  0.27352  0.84756  0.24142  1.0000
  H   H769      1.0  0.37233  0.91583  0.13199  1.0000
  H   H770      1.0  0.32560  0.84851  0.24144  1.0000
  N   N27       1.0  0.16914  0.80220  0.24877  1.0000
  H   H771      1.0  0.11969  0.82390  0.02938  1.0000
  H   H772      1.0  0.41840  0.94230  0.13825  1.0000
  C   C424      1.0  0.49613  0.53371  0.12496  1.0000
  C   C425      1.0  0.34363  0.84882  0.24710  1.0000
  C   C426      1.0  0.33256  0.99112  0.09238  1.0000
  C   C427      1.0  0.19178  0.83161  0.25297  1.0000
  H   H773      1.0  0.20032  0.79297  0.24923  1.0000
  C   C428      1.0  0.13669  0.86159  0.01125  1.0000
  H   H774      1.0  0.49116  0.65133  0.23287  1.0000
  H   H775      1.0  0.20741  0.99651  0.07414  1.0000
  C   C429      1.0  0.50024  0.95434  0.18345  1.0000
  H   H776      1.0  0.26984  0.00333  0.12608  1.0000
  H   H777      1.0  0.47273  0.97217  0.23957  1.0000
  H   H778      1.0  0.44057  0.99905  0.12896  1.0000
  H   H779      1.0  0.14337  0.74363  0.24224  1.0000
  C   C430      1.0  0.12499  0.77479  0.22597  1.0000
  C   C431      1.0  0.45983  0.97910  0.24642  1.0000
  H   H780      1.0  0.30008  0.93591  0.12503  1.0000
  H   H781      1.0  0.14615  0.81848  0.23537  1.0000
  S   S91       1.0  0.33959  0.97109  0.19776  1.0000
  C   C432      1.0  0.45812  0.99903  0.23048  1.0000
  H   H782      1.0  0.31777  0.99545  0.06098  1.0000
  C   C433      1.0  0.49952  0.98775  0.16003  1.0000
  C   C434      1.0  0.43275  0.95317  0.24951  1.0000
  H   H783      1.0  0.15650  0.86961  0.01776  1.0000
  H   H784      1.0  0.20027  0.84584  0.21889  1.0000
  H   H785      1.0  0.32051  0.88307  0.12447  1.0000
  C   C435      1.0  0.37318  0.91904  0.11403  1.0000
  C   C436      1.0  0.23207  0.87532  0.23978  1.0000
  C   C437      1.0  0.47822  0.63921  0.24640  1.0000
  H   H786      1.0  0.47751  0.53246  0.11986  1.0000
  C   C438      1.0  0.39988  0.96941  0.11744  1.0000
  H   H787      1.0  0.46262  0.98686  0.15795  1.0000
  C   C439      1.0  0.28974  0.95717  0.07555  1.0000
  H   H788      1.0  0.23103  0.99209  0.10105  1.0000
  H   H789      1.0  0.45751  0.62689  0.23998  1.0000
  C   C440      1.0  0.32785  0.97457  0.11073  1.0000
  C   C441      1.0  0.17510  0.73808  0.23336  1.0000
  Fe  Fe44      1.0  0.39582  0.95516  0.18733  1.0000
  C   C442      1.0  0.45990  0.95618  0.17972  1.0000
  C   C443      1.0  0.42650  0.99738  0.11596  1.0000
  H   H790      1.0  0.26701  0.83431  0.22684  1.0000
  H   H791      1.0  0.25571  0.95444  0.13225  1.0000
  C   C444      1.0  0.24965  0.99596  0.09374  1.0000
  C   C445      1.0  0.24502  0.95953  0.11997  1.0000
  H   H792      1.0  0.49332  0.51279  0.12301  1.0000
  C   C446      1.0  0.16472  0.75372  0.24611  1.0000
  C   C447      1.0  0.15106  0.80250  0.23129  1.0000
  S   S92       1.0  0.35231  0.98702  0.13247  1.0000
  H   H793      1.0  0.22098  0.83413  0.22960  1.0000
  H   H794      1.0  0.35311  0.84610  0.23253  1.0000
  H   H795      1.0  0.44079  0.96146  0.11743  1.0000
  C   C448      1.0  0.18056  0.78509  0.24120  1.0000
  H   H796      1.0  0.22757  0.95808  0.12776  1.0000
  H   H797      1.0  0.39571  0.94056  0.03885  1.0000
  Fe  Fe45      1.0  0.25262  0.96001  0.02357  1.0000
  H   H798      1.0  0.17204  0.73887  0.21549  1.0000
  C   C449      1.0  0.40379  0.94707  0.08411  1.0000
  H   H799      1.0  0.45276  0.98810  0.21430  1.0000
  S   S93       1.0  0.26421  0.94591  0.05485  1.0000
  Fe  Fe46      1.0  0.35795  0.97117  0.16550  1.0000
  H   H800      1.0  0.43555  0.99937  0.09984  1.0000
  C   C450      1.0  0.42445  0.91811  0.11373  1.0000
  S   S94       1.0  0.30488  0.88907  0.21355  1.0000
  H   H801      1.0  0.24656  0.88412  0.22649  1.0000
  C   C451      1.0  0.32317  0.89164  0.10786  1.0000
  H   H802      1.0  0.26693  0.92067  0.09439  1.0000
  H   H803      1.0  0.24364  0.98043  0.07996  1.0000
  H   H804      1.0  0.23826  0.94408  0.10618  1.0000
  H   H805      1.0  0.42536  0.95907  0.08096  1.0000
  H   H806      1.0  0.39423  0.96679  0.13493  1.0000
  H   H807      1.0  0.35013  0.92849  0.09080  1.0000
  C   C452      1.0  0.28531  0.94037  0.09368  1.0000
  Fe  Fe47      1.0  0.33934  0.93158  0.20409  1.0000
  N   N28       1.0  0.39941  0.94411  0.10849  1.0000
  H   H808      1.0  0.39070  0.90641  0.03629  1.0000
  H   H809      1.0  0.19645  0.74708  0.23713  1.0000
  H   H810      1.0  0.37083  0.89978  0.10682  1.0000
  H   H811      1.0  0.12933  0.76014  0.21759  1.0000
  H   H812      1.0  0.42422  0.94199  0.23361  1.0000
  C   C453      1.0  0.47305  0.97804  0.16542  1.0000
  H   H813      1.0  0.40568  0.89796  0.11474  1.0000
  C   C454      1.0  0.39103  0.92002  0.06976  1.0000
  H   H814      1.0  0.43755  0.91295  0.14582  1.0000
  S   S95       1.0  0.42569  0.94099  0.18537  1.0000
  H   H815      1.0  0.34608  0.93380  0.11915  1.0000
  C   C455      1.0  0.47371  0.94446  0.18868  1.0000
  S   S96       1.0  0.21855  0.96690  0.02692  1.0000
  C   C456      1.0  0.34841  0.92014  0.10737  1.0000
  H   H816      1.0  0.43189  0.92065  0.09686  1.0000
  H   H817      1.0  0.38481  0.97201  0.10862  1.0000
  H   H818      1.0  0.18420  0.78734  0.22332  1.0000
  H   H819      1.0  0.44073  0.00064  0.23452  1.0000
  S   S97       1.0  0.35542  0.93069  0.17101  1.0000
  S   S98       1.0  0.39970  0.99563  0.17975  1.0000
  C   C457      1.0  0.42121  0.94267  0.12023  1.0000
  S   S99       1.0  0.37946  0.95350  0.22062  1.0000
  S   S100      1.0  0.01157  0.71360  0.00690  1.0000
  H   H820      1.0  0.00741  0.67154  0.16517  1.0000
  C   C458      1.0  0.01108  0.69260  0.16746  1.0000
  C   C459      1.0  0.07113  0.67450  0.25559  1.0000
  H   H821      1.0  0.32293  0.80571  0.25413  1.0000
  H   H822      1.0  0.35762  0.86932  0.25500  1.0000
  Fe  Fe48      1.0  0.21564  0.74158  0.32806  1.0000
  S   S101      1.0  0.23629  0.78249  0.34610  1.0000
  S   S102      1.0  0.23243  0.71362  0.32386  1.0000
  Fe  Fe49      1.0  0.16847  0.74678  0.31494  1.0000
  S   S103      1.0  0.18634  0.78873  0.33205  1.0000
  S   S104      1.0  0.12766  0.73002  0.29897  1.0000
  Fe  Fe50      1.0  0.22454  0.79808  0.31711  1.0000
  S   S105      1.0  0.25459  0.84153  0.30595  1.0000
  Fe  Fe51      1.0  0.19653  0.77003  0.35963  1.0000
  S   S106      1.0  0.19459  0.77561  0.39660  1.0000
  S   S107      1.0  0.20602  0.75773  0.29800  1.0000
  S   S108      1.0  0.17650  0.72751  0.34355  1.0000
  H   H823      1.0  0.49663  0.68226  0.33036  1.0000
  Fe  Fe52      1.0  0.30217  0.60935  0.38301  1.0000
  S   S109      1.0  0.32723  0.64758  0.36355  1.0000
  S   S110      1.0  0.26712  0.56857  0.36961  1.0000
  Fe  Fe53      1.0  0.33025  0.63797  0.42700  1.0000
  S   S111      1.0  0.35710  0.67821  0.41087  1.0000
  S   S112      1.0  0.33506  0.62580  0.46152  1.0000
  Fe  Fe54      1.0  0.32079  0.66998  0.39138  1.0000
  S   S113      1.0  0.31418  0.70617  0.38812  1.0000
  Fe  Fe55      1.0  0.36175  0.65332  0.38422  1.0000
  S   S114      1.0  0.40129  0.65919  0.37360  1.0000
  S   S115      1.0  0.29360  0.63144  0.40965  1.0000
  S   S116      1.0  0.33677  0.61324  0.40140  1.0000
  Fe  Fe56      1.0  0.12160  0.81804  0.48480  1.0000
  S   S117      1.0  0.10975  0.84867  0.49453  1.0000
  S   S118      1.0  0.12495  0.81363  0.44791  1.0000
  C   C460      1.0  0.49444  0.67089  0.31466  1.0000
  C   C461      1.0  0.19230  0.68841  0.39799  1.0000
  H   H824      1.0  0.39821  0.74063  0.41446  1.0000
  C   C462      1.0  0.22458  0.66642  0.41731  1.0000
  H   H825      1.0  0.34013  0.84886  0.29206  1.0000
  H   H826      1.0  0.12033  0.80639  0.30819  1.0000
  H   H827      1.0  0.31180  0.76131  0.32192  1.0000
  H   H828      1.0  0.50182  0.67081  0.27036  1.0000
  H   H829      1.0  0.29584  0.89509  0.29335  1.0000
  H   H830      1.0  0.49585  0.70920  0.28102  1.0000
  H   H831      1.0  0.35494  0.82594  0.26732  1.0000
  H   H832      1.0  0.22755  0.51275  0.35796  1.0000
  C   C463      1.0  0.33314  0.63778  0.48817  1.0000
  C   C464      1.0  0.33115  0.66108  0.49165  1.0000
  C   C465      1.0  0.26198  0.83649  0.26161  1.0000
  H   H833      1.0  0.33021  0.67215  0.47779  1.0000
  H   H834      1.0  0.15054  0.97338  0.50332  1.0000
  C   C466      1.0  0.47824  0.73549  0.35087  1.0000
  C   C467      1.0  0.45465  0.73573  0.35117  1.0000
  C   C468      1.0  0.43102  0.71283  0.35848  1.0000
  C   C469      1.0  0.43079  0.68949  0.36579  1.0000
  C   C470      1.0  0.45455  0.68960  0.36617  1.0000
  C   C471      1.0  0.47815  0.71242  0.35870  1.0000
  H   H835      1.0  0.45456  0.75359  0.34535  1.0000
  H   H836      1.0  0.41292  0.71309  0.35812  1.0000
  H   H837      1.0  0.45469  0.67188  0.37225  1.0000
  C   C472      1.0  0.40037  0.60816  0.33337  1.0000
  C   C473      1.0  0.25521  0.71191  0.34191  1.0000
  C   C474      1.0  0.27231  0.73406  0.35600  1.0000
  C   C475      1.0  0.29037  0.73204  0.36989  1.0000
  C   C476      1.0  0.29156  0.70788  0.36986  1.0000
  C   C477      1.0  0.27461  0.68582  0.35562  1.0000
  C   C478      1.0  0.25664  0.68791  0.34166  1.0000
  H   H838      1.0  0.27178  0.75282  0.35603  1.0000
  H   H839      1.0  0.30349  0.74927  0.38077  1.0000
  H   H840      1.0  0.27534  0.66714  0.35538  1.0000
  H   H841      1.0  0.24366  0.67074  0.33068  1.0000
  C   C479      1.0  0.17516  0.78637  0.41053  1.0000
  C   C480      1.0  0.17618  0.78790  0.43357  1.0000
  C   C481      1.0  0.16099  0.79618  0.44530  1.0000
  C   C482      1.0  0.14462  0.80312  0.43407  1.0000
  C   C483      1.0  0.14376  0.80177  0.41104  1.0000
  C   C484      1.0  0.15888  0.79342  0.39932  1.0000
  H   H842      1.0  0.18870  0.78253  0.44242  1.0000
  H   H843      1.0  0.16183  0.79705  0.46299  1.0000
  H   H844      1.0  0.13114  0.80702  0.40219  1.0000
  H   H845      1.0  0.15785  0.79232  0.38162  1.0000
  H   H846      1.0  0.21032  0.88035  0.48914  1.0000
  H   H847      1.0  0.18005  0.66876  0.40667  1.0000
  H   H848      1.0  0.13867  0.77017  0.26827  1.0000
  C   C485      1.0  0.26972  0.54071  0.35950  1.0000
  C   C486      1.0  0.29417  0.54345  0.35587  1.0000
  H   H849      1.0  0.37410  0.61522  0.43987  1.0000
  H   H850      1.0  0.43224  0.76823  0.41927  1.0000
  H   H851      1.0  0.39017  0.66704  0.47650  1.0000
  H   H852      1.0  0.31220  0.56298  0.35964  1.0000
  C   C487      1.0  0.24497  0.65779  0.41523  1.0000
  N   N29       1.0  0.43156  0.69964  0.44612  1.0000
  H   H853      1.0  0.19119  0.89074  0.39112  1.0000
  C   C488      1.0  0.45901  0.70983  0.43782  1.0000
  C   C489      1.0  0.42365  0.71991  0.43927  1.0000
  C   C490      1.0  0.40452  0.68884  0.48157  1.0000
  H   H854      1.0  0.46210  0.72175  0.27351  1.0000
  H   H855      1.0  0.32205  0.78914  0.34179  1.0000
  C   C491      1.0  0.41815  0.63084  0.31773  1.0000
  H   H856      1.0  0.22022  0.92181  0.38247  1.0000
  H   H857      1.0  0.10023  0.87859  0.45625  1.0000
  H   H858      1.0  0.47071  0.73289  0.43761  1.0000
  H   H859      1.0  0.43537  0.73974  0.44891  1.0000
  C   C492      1.0  0.47531  0.73013  0.28829  1.0000
  H   H860      1.0  0.09726  0.90865  0.45627  1.0000
  H   H861      1.0  0.16914  0.79109  0.28239  1.0000
  H   H862      1.0  0.40061  0.58900  0.32989  1.0000
  H   H863      1.0  0.27069  0.54348  0.43099  1.0000
  H   H864      1.0  0.22555  0.56048  0.28775  1.0000
  H   H865      1.0  0.37973  0.60332  0.33135  1.0000
  H   H866      1.0  0.42080  0.75289  0.39223  1.0000
  N   N30       1.0  0.21772  0.70739  0.41067  1.0000
  C   C493      1.0  0.21119  0.70928  0.43415  1.0000
  C   C494      1.0  0.23116  0.73536  0.40044  1.0000
  C   C495      1.0  0.23620  0.69661  0.41008  1.0000
  C   C496      1.0  0.25657  0.75845  0.41257  1.0000
  C   C497      1.0  0.19609  0.72452  0.43826  1.0000
  C   C498      1.0  0.19005  0.72459  0.46246  1.0000
  C   C499      1.0  0.26735  0.78612  0.40153  1.0000
  H   H867      1.0  0.19879  0.68819  0.44070  1.0000
  H   H868      1.0  0.22941  0.71943  0.44477  1.0000
  H   H869      1.0  0.21717  0.74264  0.39833  1.0000
  H   H870      1.0  0.23693  0.73387  0.38355  1.0000
  H   H871      1.0  0.31428  0.52320  0.34433  1.0000
  H   H872      1.0  0.25388  0.70961  0.42089  1.0000
  H   H873      1.0  0.21878  0.66432  0.43466  1.0000
  H   H874      1.0  0.27232  0.75345  0.41235  1.0000
  H   H875      1.0  0.25284  0.76140  0.42981  1.0000
  H   H876      1.0  0.17702  0.71440  0.42892  1.0000
  H   H877      1.0  0.17737  0.70311  0.46809  1.0000
  H   H878      1.0  0.20862  0.73538  0.47256  1.0000
  H   H879      1.0  0.17935  0.73567  0.46488  1.0000
  H   H880      1.0  0.26305  0.67176  0.42530  1.0000
  H   H881      1.0  0.25255  0.79252  0.40163  1.0000
  H   H882      1.0  0.28550  0.80230  0.41043  1.0000
  H   H883      1.0  0.27238  0.78451  0.38440  1.0000
  H   H884      1.0  0.22774  0.56801  0.33786  1.0000
  H   H885      1.0  0.44210  0.63439  0.27743  1.0000
  H   H886      1.0  0.18875  0.91951  0.38180  1.0000
  C   C500      1.0  0.39289  0.62004  0.43230  1.0000
  H   H887      1.0  0.44584  0.72033  0.47771  1.0000
  H   H888      1.0  0.20785  0.74643  0.43347  1.0000
  H   H889      1.0  0.31716  0.86059  0.36109  1.0000
  H   H890      1.0  0.22666  0.88428  0.46346  1.0000
  H   H891      1.0  0.20400  0.83264  0.26745  1.0000
  C   C501      1.0  0.30127  0.89270  0.25872  1.0000
  H   H892      1.0  0.43858  0.68584  0.47705  1.0000
  H   H893      1.0  0.24136  0.73593  0.27751  1.0000
  H   H894      1.0  0.43472  0.93903  0.26061  1.0000
  H   H895      1.0  0.32611  0.99354  0.40141  1.0000
  H   H896      1.0  0.24113  0.59508  0.31833  1.0000
  H   H897      1.0  0.30882  0.83423  0.27898  1.0000
  H   H898      1.0  0.49915  0.72092  0.30884  1.0000
  H   H899      1.0  0.13929  0.79036  0.31293  1.0000
  C   C502      1.0  0.43156  0.69920  0.47082  1.0000
  C   C503      1.0  0.48489  0.71085  0.29483  1.0000
  C   C504      1.0  0.26974  0.85363  0.28041  1.0000
  C   C505      1.0  0.24648  0.51518  0.35465  1.0000
  C   C506      1.0  0.27655  0.53012  0.42242  1.0000
  H   H900      1.0  0.39651  0.60319  0.43604  1.0000
  H   H901      1.0  0.27982  0.79389  0.26049  1.0000
  H   H902      1.0  0.39092  0.62068  0.41425  1.0000
  H   H903      1.0  0.47523  0.67324  0.25812  1.0000
  H   H904      1.0  0.19883  0.85115  0.47036  1.0000
  H   H905      1.0  0.49252  0.75079  0.28460  1.0000
  H   H906      1.0  0.25057  0.65833  0.39790  1.0000
  C   C507      1.0  0.46256  0.64305  0.28397  1.0000
  H   H907      1.0  0.49630  0.71230  0.35913  1.0000
  H   H908      1.0  0.45775  0.70273  0.42044  1.0000
  H   H909      1.0  0.17117  0.65664  0.34596  1.0000
  H   H910      1.0  0.21021  0.51902  0.32515  1.0000
  H   H911      1.0  0.46678  0.68036  0.45501  1.0000
  N   N31       1.0  0.31310  0.80596  0.29954  1.0000
  H   H912      1.0  0.35248  0.82333  0.31391  1.0000
  H   H913      1.0  0.11119  0.90197  0.47996  1.0000
  H   H914      1.0  0.35807  0.77209  0.32011  1.0000
  H   H915      1.0  0.20590  0.57140  0.31896  1.0000
  C   C508      1.0  0.29271  0.77894  0.28838  1.0000
  H   H916      1.0  0.48360  0.71474  0.46670  1.0000
  H   H917      1.0  0.16065  0.82910  0.28696  1.0000
  C   C509      1.0  0.48082  0.65895  0.26499  1.0000
  C   C510      1.0  0.12750  0.79371  0.30049  1.0000
  H   H918      1.0  0.41904  0.95871  0.25688  1.0000
  C   C511      1.0  0.30364  0.84152  0.35124  1.0000
  H   H919      1.0  0.44477  0.67559  0.28979  1.0000
  H   H920      1.0  0.28685  0.84316  0.34502  1.0000
  H   H921      1.0  0.02757  0.78739  0.48585  1.0000
  C   C512      1.0  0.20730  0.87384  0.47157  1.0000
  H   H922      1.0  0.18736  0.52185  0.30806  1.0000
  H   H923      1.0  0.41725  0.64564  0.45929  1.0000
  H   H924      1.0  0.30427  0.00574  0.39491  1.0000
  H   H925      1.0  0.46458  0.73287  0.30189  1.0000
  H   H926      1.0  0.13161  0.81149  0.26915  1.0000
  C   C513      1.0  0.44758  0.63970  0.32135  1.0000
  H   H927      1.0  0.44731  0.73615  0.40929  1.0000
  H   H928      1.0  0.39611  0.70164  0.47723  1.0000
  C   C514      1.0  0.22539  0.57324  0.32089  1.0000
  H   H929      1.0  0.45344  0.64892  0.33822  1.0000
  H   H930      1.0  0.45506  0.68729  0.31732  1.0000
  C   C515      1.0  0.32416  0.82948  0.28388  1.0000
  C   C516      1.0  0.50164  0.70947  0.43837  1.0000
  C   C517      1.0  0.16843  0.66051  0.36333  1.0000
  H   H931      1.0  0.30228  0.77063  0.27783  1.0000
  H   H932      1.0  0.41093  0.62282  0.30082  1.0000
  H   H933      1.0  0.44794  0.62029  0.32165  1.0000
  N   N32       1.0  0.18315  0.92218  0.45081  1.0000
  C   C518      1.0  0.19882  0.91220  0.46293  1.0000
  C   C519      1.0  0.19517  0.95294  0.45511  1.0000
  C   C520      1.0  0.15557  0.90719  0.45972  1.0000
  C   C521      1.0  0.18073  0.91541  0.42659  1.0000
  C   C522      1.0  0.20679  0.92571  0.41443  1.0000
  C   C523      1.0  0.18837  0.88083  0.46044  1.0000
  C   C524      1.0  0.13727  0.91773  0.45222  1.0000
  C   C525      1.0  0.22571  0.97128  0.45790  1.0000
  C   C526      1.0  0.15538  0.79179  0.27015  1.0000
  C   C527      1.0  0.28969  0.88166  0.27890  1.0000
  C   C528      1.0  0.10985  0.90061  0.46180  1.0000
  H   H934      1.0  0.19976  0.91728  0.48075  1.0000
  H   H935      1.0  0.21969  0.92323  0.45799  1.0000
  H   H936      1.0  0.18864  0.96180  0.44213  1.0000
  H   H937      1.0  0.18778  0.95664  0.47066  1.0000
  H   H938      1.0  0.15652  0.90821  0.47795  1.0000
  H   H939      1.0  0.14496  0.88474  0.45508  1.0000
  H   H940      1.0  0.16784  0.89266  0.42345  1.0000
  H   H941      1.0  0.17041  0.92435  0.41797  1.0000
  H   H942      1.0  0.21967  0.91956  0.42257  1.0000
  H   H943      1.0  0.21754  0.94854  0.41330  1.0000
  H   H944      1.0  0.16897  0.86853  0.46821  1.0000
  H   H945      1.0  0.18615  0.87403  0.44302  1.0000
  H   H946      1.0  0.13460  0.91624  0.43417  1.0000
  H   H947      1.0  0.14539  0.93956  0.45765  1.0000
  H   H948      1.0  0.23195  0.96763  0.47410  1.0000
  H   H949      1.0  0.23611  0.96680  0.44519  1.0000
  H   H950      1.0  0.26019  0.78658  0.28428  1.0000
  H   H951      1.0  0.46748  0.98883  0.26284  1.0000
  H   H952      1.0  0.40694  0.61514  0.35063  1.0000
  H   H953      1.0  0.29608  0.82357  0.36204  1.0000
  N   N33       1.0  0.46692  0.65936  0.30503  1.0000
  C   C529      1.0  0.30002  0.81233  0.31776  1.0000
  H   H954      1.0  0.41386  0.70873  0.40414  1.0000
  H   H955      1.0  0.24670  0.81493  0.26251  1.0000
  C   C530      1.0  0.42671  0.72726  0.41463  1.0000
  H   H956      1.0  0.24418  0.69840  0.39344  1.0000
  H   H957      1.0  0.20979  0.52615  0.26381  1.0000
  H   H958      1.0  0.40259  0.71189  0.44290  1.0000
  C   C531      1.0  0.41899  0.74857  0.40998  1.0000
  C   C532      1.0  0.32813  0.78231  0.32709  1.0000
  C   C533      1.0  0.14429  0.80855  0.28086  1.0000
  H   H959      1.0  0.15514  0.66884  0.36367  1.0000
  H   H960      1.0  0.24526  0.51666  0.30642  1.0000
  H   H961      1.0  0.34583  0.76497  0.34746  1.0000
  C   C534      1.0  0.22785  0.55424  0.30430  1.0000
  C   C535      1.0  0.50280  0.64958  0.31891  1.0000
  H   H962      1.0  0.28201  0.76281  0.30074  1.0000
  C   C536      1.0  0.41176  0.67170  0.43598  1.0000
  H   H963      1.0  0.14051  0.69225  0.27694  1.0000
  H   H964      1.0  0.34310  0.79574  0.29494  1.0000
  H   H965      1.0  0.17998  0.69791  0.39700  1.0000
  C   C537      1.0  0.25140  0.75101  0.26440  1.0000
  C   C538      1.0  0.27118  0.77967  0.27427  1.0000
  C   C539      1.0  0.31952  0.00204  0.38825  1.0000
  C   C540      1.0  0.20681  0.52336  0.30814  1.0000
  H   H966      1.0  0.28526  0.53970  0.40662  1.0000
  C   C541      1.0  0.33534  0.80293  0.30828  1.0000
  H   H967      1.0  0.43390  0.65080  0.43355  1.0000
  H   H968      1.0  0.20771  0.67193  0.37294  1.0000
  C   C542      1.0  0.11055  0.70263  0.27917  1.0000
  H   H969      1.0  0.41201  0.67265  0.41792  1.0000
  H   H970      1.0  0.28928  0.79428  0.32849  1.0000
  C   C543      1.0  0.46152  0.68240  0.30175  1.0000
  C   C544      1.0  0.19527  0.68119  0.37403  1.0000
  H   H971      1.0  0.20426  0.70002  0.36419  1.0000
  C   C545      1.0  0.47696  0.70248  0.45102  1.0000
  H   H972      1.0  0.32638  0.85741  0.32263  1.0000
  C   C546      1.0  0.29529  0.52091  0.34714  1.0000
  H   H973      1.0  0.39126  0.66561  0.44019  1.0000
  C   C547      1.0  0.08549  0.69612  0.27128  1.0000
  H   H974      1.0  0.23655  0.63636  0.42093  1.0000
  H   H975      1.0  0.16683  0.75095  0.26378  1.0000
  C   C548      1.0  0.41583  0.64762  0.44141  1.0000
  H   H976      1.0  0.20705  0.65163  0.40709  1.0000
  C   C549      1.0  0.35165  0.77987  0.33401  1.0000
  C   C550      1.0  0.01022  0.78283  0.49481  1.0000
  H   H977      1.0  0.46410  0.62464  0.28705  1.0000
  C   C551      1.0  0.20129  0.91367  0.39103  1.0000
  C   C552      1.0  0.31848  0.83843  0.33229  1.0000
  H   H978      1.0  0.33527  0.83756  0.33946  1.0000
  H   H979      1.0  0.11010  0.77332  0.29527  1.0000
  H   H980      1.0  0.28444  0.81558  0.31096  1.0000
  H   H981      1.0  0.15905  0.64057  0.37186  1.0000
  H   H982      1.0  0.36844  0.80021  0.34003  1.0000
  C   C553      1.0  0.12128  0.68750  0.27102  1.0000
  H   H983      1.0  0.41544  0.64854  0.32093  1.0000
  C   C554      1.0  0.33652  0.82554  0.26298  1.0000
  H   H984      1.0  0.24821  0.55827  0.30623  1.0000
  C   C555      1.0  0.23518  0.00204  0.45713  1.0000
  H   H985      1.0  0.24539  0.52491  0.27859  1.0000
  H   H986      1.0  0.31068  0.98645  0.37455  1.0000
  H   H987      1.0  0.07702  0.70771  0.27749  1.0000
  H   H988      1.0  0.49610  0.69698  0.42284  1.0000
  H   H989      1.0  0.33614  0.60580  0.50400  1.0000
  H   H990      1.0  0.48869  0.63278  0.32941  1.0000
  C   C556      1.0  0.23426  0.50830  0.29049  1.0000
  H   H991      1.0  0.50423  0.64039  0.30318  1.0000
  H   H992      1.0  0.29178  0.52948  0.43271  1.0000
  H   H993      1.0  0.31613  0.91445  0.25772  1.0000
  H   H994      1.0  0.18423  0.84539  0.25715  1.0000
  H   H995      1.0  0.12696  0.72013  0.74291  1.0000
  Fe  Fe57      1.0  0.18527  0.77889  0.67560  1.0000
  S   S119      1.0  0.17603  0.73637  0.66602  1.0000
  S   S120      1.0  0.17217  0.80367  0.65578  1.0000
  Fe  Fe58      1.0  0.21204  0.77863  0.71899  1.0000
  S   S121      1.0  0.20351  0.73531  0.71232  1.0000
  S   S122      1.0  0.23493  0.79953  0.75085  1.0000
  Fe  Fe59      1.0  0.21707  0.74997  0.67841  1.0000
  S   S123      1.0  0.24572  0.74556  0.65663  1.0000
  Fe  Fe60      1.0  0.16320  0.72564  0.70082  1.0000
  S   S124      1.0  0.12397  0.68531  0.70565  1.0000
  S   S125      1.0  0.22727  0.79365  0.68558  1.0000
  S   S126      1.0  0.17063  0.76766  0.70998  1.0000
  Fe  Fe61      1.0  0.30195  0.60194  0.62304  1.0000
  S   S127      1.0  0.32584  0.62824  0.65199  1.0000
  S   S128      1.0  0.26895  0.55642  0.62509  1.0000
  Fe  Fe62      1.0  0.32900  0.65067  0.59194  1.0000
  S   S129      1.0  0.35490  0.68062  0.61926  1.0000
  S   S130      1.0  0.33142  0.66894  0.55823  1.0000
  Fe  Fe63      1.0  0.36076  0.64647  0.62992  1.0000
  S   S131      1.0  0.39892  0.65034  0.64300  1.0000
  Fe  Fe64      1.0  0.31821  0.66066  0.63936  1.0000
  S   S132      1.0  0.30888  0.68288  0.66621  1.0000
  S   S133      1.0  0.33727  0.61759  0.60140  1.0000
  S   S134      1.0  0.29186  0.63310  0.61156  1.0000
  Fe  Fe65      1.0  0.12806  0.80669  0.53295  1.0000
  S   S135      1.0  0.11754  0.83692  0.54560  1.0000
  S   S136      1.0  0.14076  0.78254  0.55408  1.0000
  H   H996      1.0  0.35430  0.77072  0.72262  1.0000
  C   C557      1.0  0.49643  0.78253  0.58599  1.0000
  H   H997      1.0  0.23768  0.89187  0.56466  1.0000
  C   C558      1.0  0.43639  0.74185  0.69775  1.0000
  C   C559      1.0  0.10202  0.68034  0.72695  1.0000
  C   C560      1.0  0.07765  0.65517  0.72762  1.0000
  H   H998      1.0  0.23116  0.86545  0.64204  1.0000
  H   H999      1.0  0.07242  0.63952  0.71489  1.0000
  H   H1000     1.0  0.31954  0.55344  0.62653  1.0000
  C   C561      1.0  0.10838  0.70059  0.74329  1.0000
  H   H1001     1.0  0.19486  0.85112  0.60273  1.0000
  C   C562      1.0  0.26740  0.75734  0.74149  1.0000
  C   C563      1.0  0.26174  0.72654  0.65961  1.0000
  C   C564      1.0  0.26399  0.71640  0.67971  1.0000
  C   C565      1.0  0.27832  0.70294  0.68142  1.0000
  C   C566      1.0  0.28989  0.69870  0.66298  1.0000
  C   C567      1.0  0.28732  0.70851  0.64286  1.0000
  C   C568      1.0  0.27362  0.72263  0.64127  1.0000
  H   H1002     1.0  0.25484  0.71906  0.69393  1.0000
  H   H1003     1.0  0.28016  0.69540  0.69706  1.0000
  H   H1004     1.0  0.29622  0.70559  0.62855  1.0000
  H   H1005     1.0  0.27209  0.73042  0.62565  1.0000
  C   C569      1.0  0.16368  0.79772  0.62749  1.0000
  C   C570      1.0  0.17190  0.78358  0.61404  1.0000
  C   C571      1.0  0.16486  0.77928  0.59158  1.0000
  C   C572      1.0  0.14978  0.78929  0.58228  1.0000
  C   C573      1.0  0.14168  0.80359  0.59570  1.0000
  C   C574      1.0  0.14864  0.80783  0.61820  1.0000
  H   H1006     1.0  0.18388  0.77617  0.62093  1.0000
  H   H1007     1.0  0.17131  0.76828  0.58131  1.0000
  H   H1008     1.0  0.12965  0.81094  0.58881  1.0000
  H   H1009     1.0  0.14222  0.81883  0.62847  1.0000
  C   C575      1.0  0.48075  0.72871  0.65711  1.0000
  C   C576      1.0  0.46147  0.73029  0.64466  1.0000
  C   C577      1.0  0.43634  0.70654  0.64016  1.0000
  C   C578      1.0  0.43023  0.68093  0.64808  1.0000
  C   C579      1.0  0.44960  0.67934  0.66037  1.0000
  C   C580      1.0  0.47469  0.70308  0.66492  1.0000
  H   H1010     1.0  0.46595  0.75002  0.63853  1.0000
  H   H1011     1.0  0.42176  0.70792  0.63040  1.0000
  H   H1012     1.0  0.44510  0.65960  0.66652  1.0000
  H   H1013     1.0  0.23267  0.97272  0.59730  1.0000
  H   H1014     1.0  0.00992  0.74446  0.54953  1.0000
  H   H1015     1.0  0.36314  0.85507  0.73705  1.0000
  C   C581      1.0  0.33167  0.65605  0.53148  1.0000
  H   H1016     1.0  0.22031  0.92459  0.60711  1.0000
  H   H1017     1.0  0.33462  0.62171  0.54185  1.0000
  H   H1018     1.0  0.20429  0.82466  0.53282  1.0000
  H   H1019     1.0  0.02912  0.63870  0.59861  1.0000
  C   C582      1.0  0.28547  0.54185  0.66253  1.0000
  C   C583      1.0  0.26570  0.53405  0.64638  1.0000
  H   H1020     1.0  0.13553  0.88732  0.58168  1.0000
  H   H1021     1.0  0.29922  0.52850  0.68975  1.0000
  H   H1022     1.0  0.21158  0.89174  0.55036  1.0000
  H   H1023     1.0  0.30267  0.56259  0.66292  1.0000
  C   C584      1.0  0.23828  0.96882  0.58097  1.0000
  C   C585      1.0  0.01270  0.78979  0.51714  1.0000
  C   C586      1.0  0.06014  0.64996  0.74478  1.0000
  H   H1024     1.0  0.19573  0.53644  0.69024  1.0000
  H   H1025     1.0  0.41450  0.74710  0.62662  1.0000
  H   H1026     1.0  0.41276  0.77778  0.62471  1.0000
  H   H1027     1.0  0.42346  0.77248  0.66259  1.0000
  H   H1028     1.0  0.39156  0.76923  0.66033  1.0000
  H   H1029     1.0  0.22566  0.96307  0.52453  1.0000
  H   H1030     1.0  0.32561  0.73791  0.71367  1.0000
  H   H1031     1.0  0.43786  0.73901  0.68003  1.0000
  N   N34       1.0  0.31495  0.82515  0.71056  1.0000
  C   C587      1.0  0.29535  0.82349  0.69364  1.0000
  C   C588      1.0  0.30070  0.80561  0.72888  1.0000
  C   C589      1.0  0.32954  0.85436  0.72023  1.0000
  C   C590      1.0  0.33494  0.81957  0.70066  1.0000
  C   C591      1.0  0.32381  0.79150  0.68806  1.0000
  C   C592      1.0  0.30725  0.84222  0.67364  1.0000
  C   C593      1.0  0.42661  0.97966  0.73607  1.0000
  C   C594      1.0  0.27560  0.77729  0.72262  1.0000
  H   H1032     1.0  0.48318  0.76592  0.57393  1.0000
  C   C595      1.0  0.34520  0.79068  0.67506  1.0000
  C   C596      1.0  0.28563  0.83808  0.65735  1.0000
  H   H1033     1.0  0.22489  0.53857  0.67958  1.0000
  H   H1034     1.0  0.28165  0.82875  0.70158  1.0000
  H   H1035     1.0  0.28245  0.80214  0.68685  1.0000
  H   H1036     1.0  0.01099  0.62450  0.62318  1.0000
  H   H1037     1.0  0.29369  0.81529  0.74088  1.0000
  H   H1038     1.0  0.31519  0.86053  0.72501  1.0000
  H   H1039     1.0  0.34235  0.86937  0.70789  1.0000
  H   H1040     1.0  0.34800  0.83647  0.68962  1.0000
  H   H1041     1.0  0.34851  0.82001  0.71359  1.0000
  H   H1042     1.0  0.30767  0.78718  0.67625  1.0000
  H   H1043     1.0  0.31641  0.77453  0.69982  1.0000
  H   H1044     1.0  0.31851  0.86442  0.67871  1.0000
  H   H1045     1.0  0.32047  0.83722  0.66474  1.0000
  Fe  Fe66      1.0  0.08460  0.81765  0.51969  1.0000
  H   H1046     1.0  0.48400  0.78606  0.59739  1.0000
  H   H1047     1.0  0.25908  0.78049  0.71880  1.0000
  H   H1048     1.0  0.27798  0.76710  0.70809  1.0000
  C   C597      1.0  0.34765  0.85980  0.74069  1.0000
  S   S137      1.0  0.09404  0.78583  0.50829  1.0000
  C   C598      1.0  0.33053  0.67018  0.51317  1.0000
  H   H1049     1.0  0.35222  0.80605  0.66192  1.0000
  H   H1050     1.0  0.36217  0.79505  0.68593  1.0000
  H   H1051     1.0  0.33686  0.76976  0.66728  1.0000
  H   H1052     1.0  0.29472  0.85118  0.64299  1.0000
  H   H1053     1.0  0.27368  0.81612  0.65147  1.0000
  H   H1054     1.0  0.24951  0.84653  0.72315  1.0000
  Fe  Fe67      1.0  0.14324  0.86518  0.51933  1.0000
  H   H1055     1.0  0.24515  0.92614  0.59056  1.0000
  H   H1056     1.0  0.38769  0.68255  0.51375  1.0000
  N   N35       1.0  0.38792  0.72945  0.69131  1.0000
  C   C599      1.0  0.38988  0.73008  0.66671  1.0000
  C   C600      1.0  0.37509  0.69998  0.69880  1.0000
  C   C601      1.0  0.37018  0.74025  0.69729  1.0000
  C   C602      1.0  0.41438  0.74790  0.70278  1.0000
  H   H1057     1.0  0.42193  0.76997  0.69932  1.0000
  C   C603      1.0  0.38218  0.68052  0.68667  1.0000
  C   C604      1.0  0.37170  0.65337  0.69854  1.0000
  H   H1058     1.0  0.36975  0.71682  0.65907  1.0000
  H   H1059     1.0  0.40122  0.72082  0.66085  1.0000
  H   H1060     1.0  0.37916  0.69978  0.71661  1.0000
  H   H1061     1.0  0.35315  0.68926  0.69670  1.0000
  H   H1062     1.0  0.35212  0.73036  0.68645  1.0000
  C   C605      1.0  0.03096  0.63484  0.61611  1.0000
  H   H1063     1.0  0.41229  0.74658  0.72081  1.0000
  H   H1064     1.0  0.17535  0.72944  0.61260  1.0000
  C   C606      1.0  0.16237  0.94477  0.51278  1.0000
  H   H1065     1.0  0.34881  0.71386  0.72506  1.0000
  H   H1066     1.0  0.37304  0.67544  0.66997  1.0000
  H   H1067     1.0  0.40360  0.68978  0.68481  1.0000
  H   H1068     1.0  0.37596  0.63940  0.68892  1.0000
  H   H1069     1.0  0.38145  0.65724  0.71494  1.0000
  H   H1070     1.0  0.34997  0.64282  0.70033  1.0000
  H   H1071     1.0  0.42805  0.96923  0.75079  1.0000
  H   H1072     1.0  0.27248  0.84415  0.66505  1.0000
  C   C607      1.0  0.28348  0.52245  0.67770  1.0000
  C   C608      1.0  0.21585  0.88227  0.56436  1.0000
  H   H1073     1.0  0.20533  0.88043  0.61997  1.0000
  N   N36       1.0  0.09702  0.70598  0.62803  1.0000
  C   C609      1.0  0.09184  0.70986  0.65158  1.0000
  C   C610      1.0  0.07770  0.67666  0.61982  1.0000
  C   C611      1.0  0.12445  0.71050  0.62748  1.0000
  C   C612      1.0  0.09641  0.72674  0.61333  1.0000
  C   C613      1.0  0.07038  0.72673  0.61233  1.0000
  C   C614      1.0  0.11014  0.73905  0.66223  1.0000
  C   C615      1.0  0.13293  0.70415  0.60526  1.0000
  C   C616      1.0  0.04926  0.66207  0.62868  1.0000
  H   H1074     1.0  0.01972  0.72258  0.56203  1.0000
  C   C617      1.0  0.07387  0.75162  0.60001  1.0000
  C   C618      1.0  0.10241  0.74037  0.68575  1.0000
  C   C619      1.0  0.16031  0.70785  0.60741  1.0000
  H   H1075     1.0  0.09338  0.69472  0.66197  1.0000
  H   H1076     1.0  0.07143  0.70528  0.65352  1.0000
  H   H1077     1.0  0.07628  0.67581  0.60159  1.0000
  H   H1078     1.0  0.08504  0.66277  0.62427  1.0000
  H   H1079     1.0  0.12665  0.69775  0.64006  1.0000
  H   H1080     1.0  0.13952  0.73237  0.63180  1.0000
  H   H1081     1.0  0.11286  0.74800  0.61786  1.0000
  H   H1082     1.0  0.10023  0.72341  0.59614  1.0000
  H   H1083     1.0  0.06343  0.72769  0.62885  1.0000
  H   H1084     1.0  0.05493  0.70787  0.60327  1.0000
  H   H1085     1.0  0.13093  0.74447  0.66295  1.0000
  H   H1086     1.0  0.10893  0.75509  0.65307  1.0000
  H   H1087     1.0  0.13398  0.71836  0.59255  1.0000
  H   H1088     1.0  0.11905  0.68259  0.59930  1.0000
  H   H1089     1.0  0.04960  0.65712  0.64616  1.0000
  H   H1090     1.0  0.04044  0.67505  0.62761  1.0000
  H   H1091     1.0  0.08572  0.58718  0.75359  1.0000
  C   C620      1.0  0.18348  0.94165  0.51876  1.0000
  C   C621      1.0  0.23731  0.87713  0.60776  1.0000
  H   H1092     1.0  0.08162  0.75232  0.58343  1.0000
  H   H1093     1.0  0.05458  0.75023  0.59820  1.0000
  H   H1094     1.0  0.08773  0.77112  0.60925  1.0000
  H   H1095     1.0  0.10418  0.72532  0.69590  1.0000
  H   H1096     1.0  0.11590  0.76145  0.69294  1.0000
  H   H1097     1.0  0.08186  0.73591  0.68624  1.0000
  S   S138      1.0  0.04367  0.80621  0.53167  1.0000
  H   H1098     1.0  0.16034  0.69352  0.61955  1.0000
  H   H1099     1.0  0.20469  0.83915  0.57117  1.0000
  H   H1100     1.0  0.04142  0.63060  0.74507  1.0000
  H   H1101     1.0  0.34944  0.56051  0.61377  1.0000
  C   C622      1.0  0.40317  0.75681  0.63160  1.0000
  C   C623      1.0  0.46345  0.76551  0.70597  1.0000
  N   N37       1.0  0.20695  0.88875  0.58542  1.0000
  H   H1102     1.0  0.22676  0.93588  0.55742  1.0000
  H   H1103     1.0  0.38018  0.76280  0.69450  1.0000
  H   H1104     1.0  0.43258  0.72305  0.70630  1.0000
  C   C624      1.0  0.36069  0.73613  0.72125  1.0000
  C   C625      1.0  0.25880  0.83529  0.75390  1.0000
  H   H1105     1.0  0.18138  0.84208  0.55415  1.0000
  H   H1106     1.0  0.46344  0.76925  0.72387  1.0000
  C   C626      1.0  0.40273  0.75902  0.65652  1.0000
  H   H1107     1.0  0.03864  0.62073  0.61728  1.0000
  H   H1108     1.0  0.25717  0.86313  0.62927  1.0000
  H   H1109     1.0  0.04071  0.55715  0.73597  1.0000
  H   H1110     1.0  0.23568  0.98175  0.56895  1.0000
  H   H1111     1.0  0.47860  0.76006  0.70272  1.0000
  H   H1112     1.0  0.38273  0.74434  0.62458  1.0000
  H   H1113     1.0  0.16685  0.87748  0.61707  1.0000
  H   H1114     1.0  0.37440  0.90397  0.73555  1.0000
  H   H1115     1.0  0.31459  0.80170  0.73827  1.0000
  C   C627      1.0  0.23712  0.85971  0.62664  1.0000
  H   H1116     1.0  0.33039  0.51759  0.63463  1.0000
  H   H1117     1.0  0.25250  0.89904  0.61178  1.0000
  C   C628      1.0  0.22082  0.93833  0.57401  1.0000
  H   H1118     1.0  0.16592  0.85683  0.58040  1.0000
  H   H1119     1.0  0.24920  0.73745  0.73669  1.0000
  H   H1120     1.0  0.24336  0.87040  0.59300  1.0000
  H   H1121     1.0  0.28218  0.89675  0.72897  1.0000
  H   H1122     1.0  0.16601  0.70334  0.59136  1.0000
  C   C629      1.0  0.20976  0.87361  0.60430  1.0000
  H   H1123     1.0  0.12531  0.85491  0.59475  1.0000
  H   H1124     1.0  0.22318  0.83735  0.62284  1.0000
  C   C630      1.0  0.26183  0.85394  0.73790  1.0000
  H   H1125     1.0  0.12937  0.88406  0.61057  1.0000
  H   H1126     1.0  0.40747  0.97877  0.73594  1.0000
  C   C631      1.0  0.21509  0.84699  0.53767  1.0000
  C   C632      1.0  0.33363  0.63273  0.52798  1.0000
  H   H1127     1.0  0.28318  0.75303  0.74558  1.0000
  H   H1128     1.0  0.48926  0.70154  0.67458  1.0000
  H   H1129     1.0  0.41426  0.67613  0.51200  1.0000
  H   H1130     1.0  0.22243  0.54197  0.70864  1.0000
  C   C633      1.0  0.48161  0.59861  0.72393  1.0000
  C   C634      1.0  0.13735  0.87780  0.59682  1.0000
  C   C635      1.0  0.16625  0.88745  0.60182  1.0000
  H   H1131     1.0  0.46908  0.78477  0.69725  1.0000
  C   C636      1.0  0.22389  0.91945  0.59035  1.0000
  H   H1132     1.0  0.33093  0.51079  0.60596  1.0000
  H   H1133     1.0  0.42115  0.71133  0.51272  1.0000
  C   C637      1.0  0.17821  0.87965  0.58264  1.0000
  H   H1134     1.0  0.42700  0.96820  0.72130  1.0000
  H   H1135     1.0  0.37765  0.74659  0.73308  1.0000
  H   H1136     1.0  0.17698  0.91015  0.60487  1.0000
  H   H1137     1.0  0.31935  0.54666  0.59754  1.0000
  C   C638      1.0  0.50421  0.57590  0.74192  1.0000
  H   H1138     1.0  0.25943  0.97518  0.58153  1.0000
  H   H1139     1.0  0.49921  0.75516  0.60779  1.0000
  C   C639      1.0  0.32770  0.54606  0.61375  1.0000
  C   C640      1.0  0.03592  0.57260  0.74198  1.0000
  H   H1140     1.0  0.04169  0.58878  0.72964  1.0000
  H   H1141     1.0  0.12781  0.64622  0.74750  1.0000
  C   C641      1.0  0.20916  0.96519  0.51995  1.0000
  H   H1142     1.0  0.23612  0.85400  0.54111  1.0000
  C   C642      1.0  0.32130  0.51681  0.61840  1.0000
  C   C643      1.0  0.21103  0.53113  0.69338  1.0000
  H   H1143     1.0  0.14249  0.92693  0.51207  1.0000
  C   C644      1.0  0.34311  0.74806  0.72506  1.0000
  H   H1144     1.0  0.16751  0.64215  0.74982  1.0000
  H   H1145     1.0  0.33601  0.74425  0.74208  1.0000
  H   H1146     1.0  0.20018  0.93357  0.57291  1.0000
  H   H1147     1.0  0.21378  0.85863  0.52380  1.0000
  H   H1148     1.0  0.01422  0.56187  0.74403  1.0000
  H   H1149     1.0  0.17471  0.88763  0.56731  1.0000
  C   C645      1.0  0.28032  0.88238  0.74126  1.0000
  C   C646      1.0  0.20269  0.85112  0.55797  1.0000
  H   H1150     1.0  0.46689  0.59205  0.73702  1.0000
  H   H1151     1.0  0.32908  0.68827  0.51568  1.0000
  S   S139      1.0  0.17904  0.90897  0.52488  1.0000
  C   C647      1.0  0.19269  0.99473  0.50909  1.0000
  H   H1152     1.0  0.47363  0.58266  0.71047  1.0000
  H   H1153     1.0  0.49887  0.56181  0.72728  1.0000
  H   H1154     1.0  0.48486  0.61825  0.71731  1.0000
  C   C648      1.0  0.40725  0.68985  0.50652  1.0000
  H   H1155     1.0  0.17590  0.67752  0.74836  1.0000
  C   C649      1.0  0.21376  0.99157  0.51516  1.0000
  S   S140      1.0  0.15608  0.83598  0.50842  1.0000
  H   H1156     1.0  0.08540  0.61778  0.75006  1.0000
  C   C650      1.0  0.33449  0.62378  0.50647  1.0000
  C   C651      1.0  0.16699  0.97116  0.50793  1.0000
  C   C652      1.0  0.36159  0.89014  0.74846  1.0000
  C   C653      1.0  0.00630  0.73066  0.56346  1.0000
  H   H1157     1.0  0.01121  0.74299  0.57901  1.0000
  H   H1158     1.0  0.48275  0.52186  0.74957  1.0000
  H   H1159     1.0  0.34694  0.89589  0.75283  1.0000
  H   H1160     1.0  0.33607  0.84713  0.75457  1.0000
  H   H1161     1.0  0.48639  0.56609  0.75222  1.0000
  C   C654      1.0  0.24336  0.50705  0.64624  1.0000
  Fe  Fe68      1.0  0.34878  0.95205  0.79160  1.0000
  S   S141      1.0  0.36350  0.93690  0.81863  1.0000
  H   H1162     1.0  0.19203  0.00479  0.95724  1.0000
  H   H1163     1.0  0.03873  0.73187  0.90070  1.0000
  Fe  Fe69      1.0  0.40474  0.97053  0.80995  1.0000
  S   S142      1.0  0.43626  0.95990  0.80173  1.0000
  Fe  Fe70      1.0  0.36212  0.96924  0.84007  1.0000
  H   H1164     1.0  0.04032  0.74263  0.79573  1.0000
  S   S143      1.0  0.38972  0.98326  0.78130  1.0000
  S   S144      1.0  0.34539  0.98267  0.81313  1.0000
  C   C655      1.0  0.05869  0.71008  0.89481  1.0000
  S   S145      1.0  0.04634  0.66394  0.78408  1.0000
  H   H1165     1.0  0.10769  0.77574  0.93185  1.0000
  H   H1166     1.0  0.02870  0.81642  0.94672  1.0000
  H   H1167     1.0  0.04780  0.77152  0.91762  1.0000
  Fe  Fe71      1.0  0.25697  0.97167  0.97381  1.0000
  S   S146      1.0  0.22297  0.97881  0.97491  1.0000
  S   S147      1.0  0.27612  0.98288  0.93982  1.0000
  H   H1168     1.0  0.07127  0.62736  0.79531  1.0000
  H   H1169     1.0  0.10674  0.56929  0.78834  1.0000
  H   H1170     1.0  0.07410  0.75376  0.89831  1.0000
  H   H1171     1.0  0.10980  0.69031  0.80500  1.0000
  C   C656      1.0  0.48300  0.96069  0.79884  1.0000
  H   H1172     1.0  0.29066  0.90219  0.86955  1.0000
  H   H1173     1.0  0.09635  0.65104  0.77841  1.0000
  H   H1174     1.0  0.33233  0.87948  0.84404  1.0000
  C   C657      1.0  0.12514  0.62468  0.77815  1.0000
  S   S148      1.0  0.34429  0.95587  0.87421  1.0000
  C   C658      1.0  0.10861  0.65213  0.81224  1.0000
  C   C659      1.0  0.47063  0.97412  0.80764  1.0000
  C   C660      1.0  0.30193  0.95534  0.92681  1.0000
  H   H1175     1.0  0.07289  0.55394  0.77915  1.0000
  S   S149      1.0  0.31849  0.92852  0.76401  1.0000
  C   C661      1.0  0.27489  0.84526  0.77303  1.0000
  C   C662      1.0  0.04732  0.76834  0.93553  1.0000
  C   C663      1.0  0.32544  0.96387  0.89220  1.0000
  C   C664      1.0  0.08491  0.84018  0.99487  1.0000
  C   C665      1.0  0.48592  0.99822  0.82055  1.0000
  C   C666      1.0  0.29500  0.97482  0.92191  1.0000
  C   C667      1.0  0.16693  0.65905  0.75876  1.0000
  H   H1176     1.0  0.49630  0.52521  0.77664  1.0000
  H   H1177     1.0  0.07631  0.72968  0.93429  1.0000
  H   H1178     1.0  0.31040  0.90438  0.83178  1.0000
  C   C668      1.0  0.10595  0.86611  0.98818  1.0000
  H   H1179     1.0  0.30160  0.98342  0.83539  1.0000
  H   H1180     1.0  0.22514  0.92227  0.88680  1.0000
  Fe  Fe72      1.0  0.20208  0.94090  0.99574  1.0000
  H   H1181     1.0  0.13010  0.66163  0.80990  1.0000
  H   H1182     1.0  0.06846  0.81322  0.94194  1.0000
  H   H1183     1.0  0.09599  0.71121  0.77299  1.0000
  C   C669      1.0  0.13582  0.83247  0.94389  1.0000
  H   H1184     1.0  0.23881  0.91872  0.91208  1.0000
  C   C670      1.0  0.06581  0.75627  0.96659  1.0000
  H   H1185     1.0  0.14879  0.82600  0.93646  1.0000
  H   H1186     1.0  0.13713  0.62998  0.79362  1.0000
  H   H1187     1.0  0.13912  0.66847  0.77156  1.0000
  C   C671      1.0  0.28268  0.97082  0.82597  1.0000
  C   C672      1.0  0.10383  0.67537  0.81840  1.0000
  C   C673      1.0  0.31846  0.88125  0.85497  1.0000
  H   H1188     1.0  0.02718  0.75049  0.93873  1.0000
  N   N38       1.0  0.26169  0.89610  0.84447  1.0000
  C   C674      1.0  0.24071  0.89187  0.86034  1.0000
  C   C675      1.0  0.24876  0.87709  0.82462  1.0000
  H   H1189     1.0  0.23829  0.85509  0.82960  1.0000
  C   C676      1.0  0.27870  0.92587  0.83776  1.0000
  C   C677      1.0  0.26527  0.94322  0.83687  1.0000
  C   C678      1.0  0.25135  0.90632  0.88321  1.0000
  C   C679      1.0  0.30323  0.98855  0.90193  1.0000
  C   C680      1.0  0.22929  0.88136  0.81071  1.0000
  C   C681      1.0  0.21633  0.85924  0.79235  1.0000
  H   H1190     1.0  0.00783  0.77989  0.94053  1.0000
  C   C682      1.0  0.23059  0.90895  0.89566  1.0000
  H   H1191     1.0  0.10016  0.81563  0.96159  1.0000
  H   H1192     1.0  0.22719  0.86938  0.86314  1.0000
  H   H1193     1.0  0.22768  0.89864  0.85349  1.0000
  H   H1194     1.0  0.26392  0.87957  0.81285  1.0000
  H   H1195     1.0  0.32229  0.93493  0.91616  1.0000
  H   H1196     1.0  0.32472  0.99421  0.87213  1.0000
  H   H1197     1.0  0.05434  0.70882  0.87696  1.0000
  H   H1198     1.0  0.29609  0.93763  0.84914  1.0000
  H   H1199     1.0  0.28748  0.92682  0.82155  1.0000
  H   H1200     1.0  0.26160  0.94801  0.85364  1.0000
  H   H1201     1.0  0.24606  0.93229  0.82786  1.0000
  H   H1202     1.0  0.07113  0.77515  0.97640  1.0000
  H   H1203     1.0  0.26905  0.92728  0.88186  1.0000
  C   C683      1.0  0.29366  0.87371  0.77625  1.0000
  H   H1204     1.0  0.07110  0.72141  0.97241  1.0000
  H   H1205     1.0  0.21330  0.88020  0.82065  1.0000
  H   H1206     1.0  0.24011  0.90160  0.80268  1.0000
  C   C684      1.0  0.29618  0.89243  0.76048  1.0000
  H   H1207     1.0  0.29812  0.00368  0.89792  1.0000
  H   H1208     1.0  0.20491  0.83824  0.79916  1.0000
  H   H1209     1.0  0.08261  0.66682  0.82172  1.0000
  H   H1210     1.0  0.50353  0.97303  0.93296  1.0000
  H   H1211     1.0  0.09949  0.74015  0.00560  1.0000
  H   H1212     1.0  0.10192  0.87790  0.97677  1.0000
  H   H1213     1.0  0.21266  0.88826  0.89787  1.0000
  H   H1214     1.0  0.47144  0.94204  0.78884  1.0000
  H   H1215     1.0  0.12959  0.84199  0.93132  1.0000
  C   C685      1.0  0.31700  0.94994  0.91206  1.0000
  C   C686      1.0  0.27898  0.88742  0.85577  1.0000
  H   H1216     1.0  0.05817  0.53962  0.81741  1.0000
  C   C687      1.0  0.08792  0.59177  0.80011  1.0000
  H   H1217     1.0  0.27246  0.98256  0.82556  1.0000
  C   C688      1.0  0.09522  0.78442  0.93619  1.0000
  C   C689      1.0  0.31833  0.98318  0.88721  1.0000
  C   C690      1.0  0.06107  0.73496  0.93061  1.0000
  N   N39       1.0  0.06787  0.76166  0.94242  1.0000
  H   H1218     1.0  0.04332  0.56839  0.77543  1.0000
  C   C691      1.0  0.06684  0.66993  0.76144  1.0000
  C   C692      1.0  0.05003  0.58541  0.76396  1.0000
  C   C693      1.0  0.08695  0.56479  0.79312  1.0000
  H   H1219     1.0  0.11561  0.68662  0.83340  1.0000
  C   C694      1.0  0.29911  0.88538  0.84125  1.0000
  Fe  Fe73      1.0  0.01611  0.62306  0.79926  1.0000
  H   H1220     1.0  0.03188  0.70858  0.80376  1.0000
  H   H1221     1.0  0.17779  0.00668  0.93162  1.0000
  H   H1222     1.0  0.04355  0.69034  0.90199  1.0000
  H   H1223     1.0  0.09223  0.55368  0.82600  1.0000
  S   S150      1.0  0.27666  0.99846  0.00427  1.0000
  H   H1224     1.0  0.33023  0.89911  0.86649  1.0000
  H   H1225     1.0  0.04217  0.71737  0.93665  1.0000
  H   H1226     1.0  0.10278  0.63827  0.82635  1.0000
  H   H1227     1.0  0.28677  0.96742  0.80889  1.0000
  C   C695      1.0  0.08236  0.74422  0.97536  1.0000
  C   C696      1.0  0.07793  0.54466  0.81192  1.0000
  H   H1228     1.0  0.09397  0.79427  0.92100  1.0000
  H   H1229     1.0  0.04486  0.74140  0.97061  1.0000
  H   H1230     1.0  0.30601  0.88119  0.79095  1.0000
  H   H1231     1.0  0.17888  0.66445  0.77422  1.0000
  H   H1232     1.0  0.37416  0.89351  0.76324  1.0000
  H   H1233     1.0  0.12744  0.60848  0.76981  1.0000
  H   H1234     1.0  0.10137  0.75286  0.96690  1.0000
  H   H1235     1.0  0.04340  0.59930  0.76996  1.0000
  H   H1236     1.0  0.20092  0.99514  0.93182  1.0000
  H   H1237     1.0  0.04596  0.72106  0.77736  1.0000
  C   C697      1.0  0.08046  0.60124  0.76187  1.0000
  H   H1238     1.0  0.07641  0.52509  0.80639  1.0000
  C   C698      1.0  0.03240  0.72104  0.78972  1.0000
  S   S151      1.0  0.23503  0.93228  0.99292  1.0000
  H   H1239     1.0  0.28880  0.86726  0.82971  1.0000
  H   H1240     1.0  0.27274  0.83092  0.78543  1.0000
  H   H1241     1.0  0.14731  0.84840  0.95699  1.0000
  H   H1242     1.0  0.06816  0.58601  0.80635  1.0000
  H   H1243     1.0  0.07843  0.71267  0.89732  1.0000
  C   C699      1.0  0.11170  0.80779  0.95373  1.0000
  H   H1244     1.0  0.29580  0.94453  0.94201  1.0000
  H   H1245     1.0  0.04824  0.79284  0.96424  1.0000
  C   C700      1.0  0.09230  0.63595  0.79134  1.0000
  H   H1246     1.0  0.25716  0.89411  0.89330  1.0000
  H   H1247     1.0  0.30770  0.86205  0.86441  1.0000
  H   H1248     1.0  0.26660  0.86686  0.86327  1.0000
  H   H1249     1.0  0.11896  0.80007  0.96695  1.0000
  C   C701      1.0  0.04964  0.79446  0.94623  1.0000
  C   C702      1.0  0.05809  0.73442  0.90532  1.0000
  H   H1250     1.0  0.02951  0.80273  0.92008  1.0000
  H   H1251     1.0  0.20260  0.86278  0.78243  1.0000
  H   H1252     1.0  0.23152  0.86019  0.78134  1.0000
  H   H1253     1.0  0.00760  0.62665  0.92840  1.0000
  H   H1254     1.0  0.10096  0.77258  0.00349  1.0000
  C   C703      1.0  0.13847  0.65043  0.76349  1.0000
  C   C704      1.0  0.50000  0.52443  0.75907  1.0000
  N   N40       1.0  0.09643  0.61337  0.78290  1.0000
  H   H1255     1.0  0.06502  0.83253  0.98878  1.0000
  S   S152      1.0  0.02658  0.60289  0.82563  1.0000
  C   C705      1.0  0.13202  0.87718  0.99639  1.0000
  S   S153      1.0  0.15771  0.91032  0.98734  1.0000
  C   C706      1.0  0.08854  0.74996  0.99989  1.0000
  H   H1256     1.0  0.10153  0.60036  0.81468  1.0000
  C   C707      1.0  0.09076  0.69547  0.76033  1.0000
  S   S154      1.0  0.40466  0.00167  0.83340  1.0000
  C   C708      1.0  0.02753  0.79853  0.93784  1.0000
  H   H1257     1.0  0.47865  0.51016  0.85894  1.0000
  H   H1258     1.0  0.26323  0.76614  0.75618  1.0000
  H   H1259     1.0  0.00608  0.72286  0.76636  1.0000
  H   H1260     1.0  0.00638  0.68197  0.75630  1.0000
  H   H1261     1.0  0.50551  0.60562  0.78064  1.0000
  Fe  Fe74      1.0  0.24172  0.00409  0.00580  1.0000
  Fe  Fe75      1.0  0.96365  0.33187  0.20163  1.0000
  S   S155      1.0  0.97371  0.36200  0.17430  1.0000
  S   S156      1.0  0.92031  0.30114  0.20851  1.0000
  C   C709      1.0  0.99673  0.12729  0.03500  1.0000
  H   H1262     1.0  0.74747  0.07468  0.01754  1.0000
  C   C710      1.0  0.51934  0.48814  0.19574  1.0000
  H   H1263     1.0  0.95735  0.46084  0.16544  1.0000
  S   S157      1.0  0.99119  0.31848  0.19011  1.0000
  S   S158      1.0  0.99319  0.36365  0.22569  1.0000
  S   S159      1.0  0.64170  0.04184  0.23370  1.0000
  C   C711      1.0  0.93425  0.28327  0.06389  1.0000
  H   H1264     1.0  0.95590  0.27069  0.03001  1.0000
  H   H1265     1.0  0.79850  0.08567  0.07470  1.0000
  S   S160      1.0  0.62120  0.01208  0.17034  1.0000
  N   N41       1.0  0.75785  0.05446  0.08073  1.0000
  H   H1266     1.0  0.73649  0.08142  0.05627  1.0000
  C   C712      1.0  0.51095  0.50374  0.18467  1.0000
  H   H1267     1.0  0.76822  0.06286  0.04660  1.0000
  H   H1268     1.0  0.95233  0.43077  0.22469  1.0000
  H   H1269     1.0  0.76403  0.10631  0.09416  1.0000
  C   C713      1.0  0.90718  0.35761  0.16407  1.0000
  H   H1270     1.0  0.89395  0.41424  0.22781  1.0000
  H   H1271     1.0  0.77694  0.11103  0.06683  1.0000
  H   H1272     1.0  0.82270  0.13717  0.08243  1.0000
  H   H1273     1.0  0.91687  0.43273  0.20645  1.0000
  C   C714      1.0  0.92402  0.45640  0.23606  1.0000
  C   C715      1.0  0.89654  0.36854  0.23595  1.0000
  C   C716      1.0  0.71640  0.04879  0.13193  1.0000
  H   H1274     1.0  0.93497  0.41972  0.24944  1.0000
  C   C717      1.0  0.99543  0.49647  0.21011  1.0000
  H   H1275     1.0  0.79792  0.01284  0.09540  1.0000
  C   C718      1.0  0.92233  0.29576  0.25357  1.0000
  H   H1276     1.0  0.80939  0.09644  0.02295  1.0000
  H   H1277     1.0  0.79053  0.08238  0.10257  1.0000
  H   H1278     1.0  0.71905  0.04736  0.14978  1.0000
  H   H1279     1.0  0.96974  0.28900  0.12809  1.0000
  C   C719      1.0  0.54235  0.01563  0.22550  1.0000
  C   C720      1.0  0.98948  0.27236  0.08069  1.0000
  C   C721      1.0  0.95693  0.29070  0.02759  1.0000
  C   C722      1.0  0.76375  0.03220  0.08583  1.0000
  H   H1280     1.0  0.90013  0.33680  0.15661  1.0000
  H   H1281     1.0  0.53987  0.49764  0.20081  1.0000
  H   H1282     1.0  0.99918  0.14300  0.04749  1.0000
  H   H1283     1.0  0.75280  0.46021  0.24628  1.0000
  H   H1284     1.0  0.51011  0.39936  0.22514  1.0000
  C   C723      1.0  0.90704  0.28667  0.23416  1.0000
  C   C724      1.0  0.88016  0.26591  0.23510  1.0000
  H   H1285     1.0  0.97961  0.10692  0.03944  1.0000
  C   C725      1.0  0.98215  0.29145  0.11447  1.0000
  H   H1286     1.0  0.86810  0.25885  0.22022  1.0000
  H   H1287     1.0  0.93755  0.28486  0.02006  1.0000
  H   H1288     1.0  0.95719  0.32259  0.04904  1.0000
  H   H1289     1.0  0.71595  0.06784  0.12911  1.0000
  C   C726      1.0  0.72794  0.06086  0.02479  1.0000
  S   S161      1.0  0.81592  0.04585  0.01749  1.0000
  H   H1290     1.0  0.69373  0.05162  0.22255  1.0000
  H   H1291     1.0  0.93647  0.40005  0.19209  1.0000
  H   H1292     1.0  0.69714  0.03049  0.12649  1.0000
  Fe  Fe76      1.0  0.98921  0.23296  0.02858  1.0000
  C   C727      1.0  0.93236  0.41693  0.23135  1.0000
  H   H1293     1.0  0.91214  0.46499  0.22990  1.0000
  H   H1294     1.0  0.77118  0.03456  0.10302  1.0000
  H   H1295     1.0  0.97698  0.43215  0.17290  1.0000
  C   C728      1.0  0.88938  0.11642  0.01414  1.0000
  C   C729      1.0  0.50621  0.40569  0.24121  1.0000
  H   H1296     1.0  0.70813  0.02066  0.23354  1.0000
  H   H1297     1.0  0.66665  0.00977  0.25296  1.0000
  C   C730      1.0  0.78253  0.08213  0.08594  1.0000
  C   C731      1.0  0.80573  0.13404  0.09218  1.0000
  C   C732      1.0  0.72167  0.08454  0.24481  1.0000
  H   H1298     1.0  0.95541  0.25042  0.10079  1.0000
  C   C733      1.0  0.69631  0.06602  0.23559  1.0000
  H   H1299     1.0  0.91544  0.27882  0.05593  1.0000
  H   H1300     1.0  0.93384  0.26358  0.06570  1.0000
  C   C734      1.0  0.98526  0.25324  0.17396  1.0000
  H   H1301     1.0  0.80379  0.05073  0.07228  1.0000
  N   N42       1.0  0.97941  0.30855  0.01277  1.0000
  N   N43       1.0  0.92215  0.38716  0.22456  1.0000
  H   H1302     1.0  0.73853  0.08412  0.23886  1.0000
  C   C735      1.0  0.73907  0.04956  0.11971  1.0000
  C   C736      1.0  0.75025  0.05168  0.05662  1.0000
  H   H1303     1.0  0.71456  0.06836  0.02043  1.0000
  H   H1304     1.0  0.71058  0.04573  0.05575  1.0000
  S   S162      1.0  0.98899  0.19307  0.02730  1.0000
  H   H1305     1.0  0.89349  0.36438  0.15882  1.0000
  C   C737      1.0  0.78018  0.10794  0.08417  1.0000
  C   C738      1.0  0.86415  0.09548  0.02106  1.0000
  H   H1306     1.0  0.77759  0.02660  0.05392  1.0000
  H   H1307     1.0  0.73950  0.03094  0.12432  1.0000
  C   C739      1.0  0.67434  0.06610  0.24339  1.0000
  H   H1308     1.0  0.51891  0.04415  0.21085  1.0000
  H   H1309     1.0  0.72924  0.06496  0.09147  1.0000
  C   C740      1.0  0.73499  0.04958  0.09459  1.0000
  H   H1310     1.0  0.98947  0.34882  0.02559  1.0000
  H   H1311     1.0  0.80983  0.13259  0.10974  1.0000
  H   H1312     1.0  0.93592  0.29242  0.08050  1.0000
  H   H1313     1.0  0.83708  0.13128  0.02127  1.0000
  H   H1314     1.0  0.71917  0.03956  0.01775  1.0000
  C   C741      1.0  0.52384  0.02284  0.23690  1.0000
  H   H1315     1.0  0.84815  0.23766  0.25549  1.0000
  C   C742      1.0  0.53209  0.43125  0.24938  1.0000
  H   H1316     1.0  0.97333  0.13588  0.01358  1.0000
  H   H1317     1.0  0.90080  0.13542  0.02378  1.0000
  H   H1318     1.0  0.74051  0.02969  0.05084  1.0000
  H   H1319     1.0  0.55395  0.03099  0.21294  1.0000
  H   H1320     1.0  0.85820  0.30024  0.25324  1.0000
  C   C743      1.0  0.97407  0.26955  0.09891  1.0000
  C   C744      1.0  0.73057  0.06064  0.04967  1.0000
  C   C745      1.0  0.98190  0.44976  0.18352  1.0000
  H   H1321     1.0  0.92722  0.37219  0.15799  1.0000
  H   H1322     1.0  0.94297  0.31187  0.25314  1.0000
  H   H1323     1.0  0.75878  0.38298  0.24380  1.0000
  S   S163      1.0  0.97662  0.24490  0.06043  1.0000
  H   H1324     1.0  0.87959  0.36658  0.22625  1.0000
  C   C746      1.0  0.91785  0.38477  0.20001  1.0000
  H   H1325     1.0  0.75766  0.06831  0.12561  1.0000
  H   H1326     1.0  0.85647  0.09880  0.03596  1.0000
  H   H1327     1.0  0.96123  0.39395  0.22018  1.0000
  H   H1328     1.0  0.74523  0.01144  0.08441  1.0000
  H   H1329     1.0  0.88762  0.34101  0.19400  1.0000
  H   H1330     1.0  0.71714  0.02924  0.08984  1.0000
  H   H1331     1.0  0.80378  0.15236  0.09038  1.0000
  C   C747      1.0  0.97092  0.46619  0.17925  1.0000
  H   H1332     1.0  0.96870  0.24587  0.16178  1.0000
  H   H1333     1.0  0.54775  0.42627  0.25163  1.0000
  H   H1334     1.0  0.99244  0.49641  0.13835  1.0000
  C   C748      1.0  0.72503  0.47367  0.24768  1.0000
  H   H1335     1.0  0.73564  0.49011  0.23563  1.0000
  H   H1336     1.0  0.90285  0.38994  0.19517  1.0000
  H   H1337     1.0  0.97954  0.43081  0.25460  1.0000
  C   C749      1.0  0.78443  0.03103  0.07130  1.0000
  C   C750      1.0  0.90800  0.35613  0.18899  1.0000
  C   C751      1.0  0.95784  0.30348  0.05050  1.0000
  H   H1338     1.0  0.92114  0.34839  0.19301  1.0000
  C   C752      1.0  0.89003  0.33886  0.24102  1.0000
  C   C753      1.0  0.91505  0.42875  0.22426  1.0000
  C   C754      1.0  0.97805  0.49002  0.19221  1.0000
  H   H1339     1.0  0.93749  0.35977  0.22578  1.0000
  H   H1340     1.0  0.70900  0.45490  0.23890  1.0000
  H   H1341     1.0  0.98092  0.26225  0.18837  1.0000
  H   H1342     1.0  0.94038  0.32302  0.00962  1.0000
  H   H1343     1.0  0.98634  0.23519  0.17920  1.0000
  Fe  Fe77      1.0  0.62606  0.00829  0.20656  1.0000
  H   H1344     1.0  0.53883  0.44778  0.23720  1.0000
  C   C755      1.0  0.94360  0.38137  0.23032  1.0000
  H   H1345     1.0  0.89197  0.32816  0.22656  1.0000
  H   H1346     1.0  0.55638  0.01556  0.23767  1.0000
  H   H1347     1.0  0.90356  0.33953  0.25405  1.0000
  H   H1348     1.0  0.97588  0.30858  0.06003  1.0000
  H   H1349     1.0  0.84729  0.31816  0.23622  1.0000
  H   H1350     1.0  0.94512  0.47156  0.23293  1.0000
  H   H1351     1.0  0.53634  0.04295  0.24590  1.0000
  C   C756      1.0  0.84865  0.07057  0.00875  1.0000
  C   C757      1.0  0.86876  0.25390  0.25511  1.0000
  H   H1352     1.0  0.64140  0.50456  0.16630  1.0000
  H   H1353     1.0  0.96552  0.37313  0.01980  1.0000
  C   C758      1.0  0.81737  0.11595  0.01393  1.0000
  H   H1354     1.0  0.80408  0.12413  0.01584  1.0000
  H   H1355     1.0  0.99507  0.41104  0.25055  1.0000
  C   C759      1.0  0.99967  0.45655  0.20118  1.0000
  H   H1356     1.0  0.50862  0.06382  0.24876  1.0000
  C   C760      1.0  0.86191  0.32097  0.24912  1.0000
  C   C761      1.0  0.98281  0.33659  0.00987  1.0000
  Fe  Fe78      1.0  0.00357  0.35057  0.16458  1.0000
  C   C762      1.0  0.99180  0.13544  0.01252  1.0000
  H   H1357     1.0  0.00152  0.29271  0.02867  1.0000
  H   H1358     1.0  0.89613  0.37795  0.25198  1.0000
  H   H1359     1.0  0.92135  0.45367  0.25397  1.0000
  Fe  Fe79      1.0  0.00492  0.39333  0.19792  1.0000
  C   C763      1.0  0.95251  0.38570  0.25492  1.0000
  C   C764      1.0  0.00445  0.31293  0.02361  1.0000
  H   H1360     1.0  0.50797  0.44827  0.20854  1.0000
  H   H1361     1.0  0.80313  0.00709  0.06731  1.0000
  C   C765      1.0  0.78917  0.00828  0.07855  1.0000
  H   H1362     1.0  0.79111  0.40734  0.25581  1.0000
  C   C766      1.0  0.74682  0.47955  0.40867  1.0000
  C   C767      1.0  0.70349  0.10414  0.26908  1.0000
  S   S164      1.0  0.72202  0.49008  0.33534  1.0000
  Fe  Fe80      1.0  0.67014  0.28715  0.37584  1.0000
  S   S165      1.0  0.70117  0.31805  0.39953  1.0000
  S   S166      1.0  0.66876  0.24967  0.36014  1.0000
  Fe  Fe81      1.0  0.63349  0.30934  0.38411  1.0000
  S   S167      1.0  0.66201  0.34202  0.40864  1.0000
  S   S168      1.0  0.59482  0.30680  0.37561  1.0000
  Fe  Fe82      1.0  0.69296  0.34902  0.38436  1.0000
  S   S169      1.0  0.72834  0.39107  0.37591  1.0000
  Fe  Fe83      1.0  0.66779  0.30864  0.42181  1.0000
  S   S170      1.0  0.66625  0.29286  0.45612  1.0000
  S   S171      1.0  0.66414  0.31849  0.35890  1.0000
  S   S172      1.0  0.63704  0.27571  0.39892  1.0000
  Fe  Fe84      1.0  0.77535  0.21478  0.31519  1.0000
  S   S173      1.0  0.75446  0.17033  0.32547  1.0000
  S   S174      1.0  0.76446  0.24793  0.31607  1.0000
  Fe  Fe85      1.0  0.82720  0.21694  0.30587  1.0000
  S   S175      1.0  0.81044  0.17281  0.31581  1.0000
  S   S176      1.0  0.87103  0.24734  0.29999  1.0000
  Fe  Fe86      1.0  0.77374  0.16346  0.29645  1.0000
  C   C768      1.0  0.67809  0.08532  0.26010  1.0000
  Fe  Fe87      1.0  0.79242  0.18236  0.34397  1.0000
  S   S177      1.0  0.79213  0.17289  0.38026  1.0000
  S   S178      1.0  0.79202  0.20720  0.28469  1.0000
  S   S179      1.0  0.81172  0.22704  0.33562  1.0000
  Fe  Fe88      1.0  0.87016  0.13551  0.46809  1.0000
  S   S180      1.0  0.88036  0.10356  0.47693  1.0000
  S   S181      1.0  0.86640  0.14087  0.43140  1.0000
  H   H1363     1.0  0.61763  0.30641  0.50217  1.0000
  H   H1364     1.0  0.76115  0.02331  0.46964  1.0000
  S   S182      1.0  0.83645  0.11904  0.49086  1.0000
  H   H1365     1.0  0.58580  0.29744  0.31892  1.0000
  C   C769      1.0  0.75763  0.00920  0.45547  1.0000
  H   H1366     1.0  0.68805  0.24995  0.42823  1.0000
  H   H1367     1.0  0.72892  0.47408  0.39869  1.0000
  H   H1368     1.0  0.71410  0.07646  0.30675  1.0000
  H   H1369     1.0  0.80834  0.28137  0.35000  1.0000
  H   H1370     1.0  0.71959  0.04930  0.31431  1.0000
  H   H1371     1.0  0.70110  0.26514  0.40233  1.0000
  C   C770      1.0  0.88413  0.26265  0.27448  1.0000
  H   H1372     1.0  0.57420  0.24637  0.49020  1.0000
  H   H1373     1.0  0.92286  0.29118  0.28847  1.0000
  C   C771      1.0  0.81175  0.16239  0.39417  1.0000
  C   C772      1.0  0.81290  0.16350  0.41719  1.0000
  C   C773      1.0  0.82909  0.15644  0.42891  1.0000
  C   C774      1.0  0.84414  0.14798  0.41768  1.0000
  C   C775      1.0  0.84235  0.14604  0.39468  1.0000
  C   C776      1.0  0.82630  0.15325  0.38295  1.0000
  H   H1374     1.0  0.80163  0.17043  0.42602  1.0000
  H   H1375     1.0  0.83043  0.15822  0.44659  1.0000
  H   H1376     1.0  0.85382  0.13934  0.38586  1.0000
  H   H1377     1.0  0.82538  0.15203  0.36525  1.0000
  C   C777      1.0  0.73767  0.24777  0.32861  1.0000
  C   C778      1.0  0.71439  0.22321  0.33345  1.0000
  C   C779      1.0  0.69346  0.22416  0.34312  1.0000
  C   C780      1.0  0.69579  0.24961  0.34838  1.0000
  C   C781      1.0  0.71923  0.27416  0.34388  1.0000
  C   C782      1.0  0.73997  0.27320  0.33387  1.0000
  H   H1378     1.0  0.71238  0.20353  0.32939  1.0000
  H   H1379     1.0  0.67535  0.20507  0.34652  1.0000
  H   H1380     1.0  0.72125  0.29387  0.34785  1.0000
  H   H1381     1.0  0.75795  0.29229  0.33021  1.0000
  C   C783      1.0  0.66843  0.30865  0.48199  1.0000
  H   H1382     1.0  0.73896  0.37854  0.28041  1.0000
  C   C784      1.0  0.67257  0.33525  0.48420  1.0000
  H   H1383     1.0  0.72195  0.27781  0.42687  1.0000
  H   H1384     1.0  0.67500  0.34706  0.46979  1.0000
  C   C785      1.0  0.72425  0.46352  0.34795  1.0000
  C   C786      1.0  0.74859  0.46602  0.35232  1.0000
  C   C787      1.0  0.74953  0.44376  0.36118  1.0000
  C   C788      1.0  0.72616  0.41895  0.36595  1.0000
  C   C789      1.0  0.70185  0.41681  0.36227  1.0000
  C   C790      1.0  0.70093  0.43900  0.35326  1.0000
  H   H1385     1.0  0.76663  0.48496  0.34868  1.0000
  H   H1386     1.0  0.76842  0.44568  0.36423  1.0000
  H   H1387     1.0  0.68374  0.39791  0.36605  1.0000
  H   H1388     1.0  0.68200  0.43697  0.35009  1.0000
  C   C791      1.0  0.54574  0.27796  0.35535  1.0000
  C   C792      1.0  0.56521  0.27606  0.36716  1.0000
  C   C793      1.0  0.56064  0.24991  0.37196  1.0000
  C   C794      1.0  0.53708  0.22595  0.36449  1.0000
  H   H1389     1.0  0.54899  0.29811  0.35176  1.0000
  H   H1390     1.0  0.57521  0.24817  0.38139  1.0000
  C   C795      1.0  0.91088  0.28387  0.27360  1.0000
  H   H1391     1.0  0.57746  0.25235  0.32965  1.0000
  H   H1392     1.0  0.95427  0.36793  0.25993  1.0000
  H   H1393     1.0  0.68861  0.39883  0.29654  1.0000
  H   H1394     1.0  0.73264  0.43604  0.41272  1.0000
  H   H1395     1.0  0.58508  0.26315  0.42893  1.0000
  C   C796      1.0  0.73964  0.45500  0.42314  1.0000
  H   H1396     1.0  0.95747  0.26676  0.35789  1.0000
  H   H1397     1.0  0.75145  0.06089  0.40789  1.0000
  H   H1398     1.0  0.74104  0.50257  0.43445  1.0000
  C   C797      1.0  0.76930  0.07415  0.37681  1.0000
  H   H1399     1.0  0.85165  0.04109  0.41777  1.0000
  H   H1400     1.0  0.79386  0.11928  0.46738  1.0000
  C   C798      1.0  0.73884  0.18322  0.38419  1.0000
  H   H1401     1.0  0.79908  0.28300  0.39943  1.0000
  H   H1402     1.0  0.60823  0.26485  0.48389  1.0000
  C   C799      1.0  0.80897  0.04414  0.43394  1.0000
  H   H1403     1.0  0.77736  0.20351  0.44764  1.0000
  H   H1404     1.0  0.71821  0.23195  0.42995  1.0000
  H   H1405     1.0  0.81095  0.09179  0.44558  1.0000
  C   C800      1.0  0.76345  0.05639  0.39691  1.0000
  C   C801      1.0  0.68499  0.03603  0.29297  1.0000
  H   H1406     1.0  0.70847  0.15968  0.35888  1.0000
  H   H1407     1.0  0.80418  0.08429  0.40824  1.0000
  C   C802      1.0  0.83740  0.06769  0.42895  1.0000
  H   H1408     1.0  0.69029  0.37509  0.32999  1.0000
  H   H1409     1.0  0.84396  0.08480  0.44112  1.0000
  H   H1410     1.0  0.66121  0.08560  0.26620  1.0000
  H   H1411     1.0  0.87709  0.07517  0.42748  1.0000
  C   C803      1.0  0.53264  0.20209  0.27592  1.0000
  H   H1412     1.0  0.82654  0.27685  0.37184  1.0000
  C   C804      1.0  0.77485  0.09929  0.46841  1.0000
  H   H1413     1.0  0.79739  0.24037  0.45386  1.0000
  C   C805      1.0  0.73038  0.41545  0.30485  1.0000
  H   H1414     1.0  0.83890  0.07604  0.41242  1.0000
  H   H1415     1.0  0.77231  0.09246  0.43386  1.0000
  C   C806      1.0  0.72542  0.10371  0.26159  1.0000
  C   C807      1.0  0.70414  0.05444  0.31141  1.0000
  H   H1416     1.0  0.78328  0.23512  0.37810  1.0000
  C   C808      1.0  0.85677  0.05763  0.43035  1.0000
  H   H1417     1.0  0.71954  0.20503  0.37457  1.0000
  H   H1418     1.0  0.74562  0.17813  0.39938  1.0000
  C   C809      1.0  0.79180  0.07225  0.44805  1.0000
  C   C810      1.0  0.59679  0.25562  0.32466  1.0000
  H   H1419     1.0  0.53353  0.20576  0.36826  1.0000
  H   H1420     1.0  0.61026  0.22657  0.43121  1.0000
  H   H1421     1.0  0.78022  0.09646  0.38174  1.0000
  H   H1422     1.0  0.78503  0.21267  0.40798  1.0000
  C   C811      1.0  0.70252  0.39126  0.29737  1.0000
  H   H1423     1.0  0.66913  0.25380  0.27353  1.0000
  H   H1424     1.0  0.67132  0.35103  0.30790  1.0000
  C   C812      1.0  0.73001  0.20392  0.38943  1.0000
  H   H1425     1.0  0.69670  0.04014  0.27803  1.0000
  C   C813      1.0  0.52230  0.25396  0.34769  1.0000
  H   H1426     1.0  0.63392  0.00933  0.27337  1.0000
  H   H1427     1.0  0.72719  0.42706  0.31799  1.0000
  H   H1428     1.0  0.77461  0.08907  0.48382  1.0000
  N   N44       1.0  0.75130  0.23275  0.39699  1.0000
  C   C814      1.0  0.59057  0.26692  0.48507  1.0000
  H   H1429     1.0  0.61567  0.32098  0.30514  1.0000
  C   C815      1.0  0.75670  0.50646  0.42265  1.0000
  C   C816      1.0  0.75823  0.39737  0.27702  1.0000
  S   S183      1.0  0.75761  0.12552  0.27331  1.0000
  N   N45       1.0  0.58395  0.27394  0.46303  1.0000
  H   H1430     1.0  0.80999  0.03858  0.45117  1.0000
  H   H1431     1.0  0.93891  0.21733  0.41987  1.0000
  H   H1432     1.0  0.72387  0.45466  0.28962  1.0000
  H   H1433     1.0  0.97346  0.28403  0.32156  1.0000
  H   H1434     1.0  0.85660  0.04961  0.44682  1.0000
  C   C817      1.0  0.77112  0.45963  0.29756  1.0000
  H   H1435     1.0  0.63262  0.35574  0.44194  1.0000
  Fe  Fe89      1.0  0.90709  0.13454  0.50317  1.0000
  H   H1436     1.0  0.66266  0.23067  0.29566  1.0000
  C   C818      1.0  0.61142  0.34648  0.43733  1.0000
  H   H1437     1.0  0.75049  0.06234  0.44947  1.0000
  C   C819      1.0  0.51490  0.26664  0.46839  1.0000
  S   S184      1.0  0.89911  0.16751  0.49282  1.0000
  H   H1438     1.0  0.71227  0.42818  0.26882  1.0000
  H   H1439     1.0  0.67329  0.26642  0.30148  1.0000
  C   C820      1.0  0.77074  0.08057  0.44858  1.0000
  C   C821      1.0  0.59690  0.31491  0.43737  1.0000
  C   C822      1.0  0.78755  0.22945  0.41916  1.0000
  H   H1440     1.0  0.63163  0.25867  0.28377  1.0000
  H   H1441     1.0  0.75713  0.45869  0.43297  1.0000
  H   H1442     1.0  0.54314  0.24062  0.46437  1.0000
  H   H1443     1.0  0.74093  0.40663  0.31319  1.0000
  H   H1444     1.0  0.96668  0.18384  0.47915  1.0000
  H   H1445     1.0  0.91067  0.20247  0.43712  1.0000
  C   C823      1.0  0.57858  0.22828  0.44728  1.0000
  C   C824      1.0  0.58852  0.21709  0.42939  1.0000
  H   H1446     1.0  0.76251  0.48188  0.39769  1.0000
  H   H1447     1.0  0.75050  0.06910  0.36845  1.0000
  H   H1448     1.0  0.79699  0.05212  0.39660  1.0000
  C   C825      1.0  0.60687  0.30406  0.31700  1.0000
  N   N46       1.0  0.90060  0.22987  0.36653  1.0000
  C   C826      1.0  0.91605  0.25437  0.35224  1.0000
  C   C827      1.0  0.87508  0.22806  0.37222  1.0000
  C   C828      1.0  0.91714  0.23358  0.38674  1.0000
  C   C829      1.0  0.89390  0.20321  0.35481  1.0000
  C   C830      1.0  0.88239  0.19899  0.33114  1.0000
  C   C831      1.0  0.94264  0.25881  0.34416  1.0000
  C   C832      1.0  0.90298  0.21204  0.40471  1.0000
  C   C833      1.0  0.87763  0.25209  0.38677  1.0000
  C   C834      1.0  0.85059  0.24535  0.39456  1.0000
  C   C835      1.0  0.87266  0.16982  0.32213  1.0000
  C   C836      1.0  0.95366  0.27986  0.32606  1.0000
  C   C837      1.0  0.92135  0.21821  0.42457  1.0000
  H   H1449     1.0  0.92105  0.27385  0.36116  1.0000
  H   H1450     1.0  0.90373  0.25320  0.33787  1.0000
  H   H1451     1.0  0.86399  0.22729  0.35712  1.0000
  H   H1452     1.0  0.86168  0.20834  0.38032  1.0000
  H   H1453     1.0  0.92566  0.25470  0.39419  1.0000
  H   H1454     1.0  0.93463  0.23235  0.38230  1.0000
  H   H1455     1.0  0.91141  0.20094  0.35416  1.0000
  H   H1456     1.0  0.87926  0.18521  0.36420  1.0000
  H   H1457     1.0  0.89757  0.21379  0.31996  1.0000
  H   H1458     1.0  0.86552  0.20214  0.33051  1.0000
  H   H1459     1.0  0.82701  0.47618  0.32960  1.0000
  H   H1460     1.0  0.94056  0.23944  0.33753  1.0000
  H   H1461     1.0  0.89668  0.19098  0.39835  1.0000
  H   H1462     1.0  0.88534  0.21197  0.41056  1.0000
  H   H1463     1.0  0.89019  0.25618  0.40161  1.0000
  H   H1464     1.0  0.88617  0.27133  0.37735  1.0000
  H   H1465     1.0  0.83678  0.24057  0.38044  1.0000
  H   H1466     1.0  0.84202  0.22722  0.40532  1.0000
  H   H1467     1.0  0.85268  0.26333  0.40399  1.0000
  C   C838      1.0  0.81294  0.48053  0.32113  1.0000
  H   H1468     1.0  0.51258  0.19880  0.27774  1.0000
  H   H1469     1.0  0.88910  0.16584  0.32191  1.0000
  C   C839      1.0  0.55474  0.26294  0.46052  1.0000
  H   H1470     1.0  0.61005  0.35320  0.42065  1.0000
  H   H1471     1.0  0.93773  0.38573  0.26579  1.0000
  H   H1472     1.0  0.83793  0.02308  0.48136  1.0000
  H   H1473     1.0  0.94043  0.27145  0.31128  1.0000
  H   H1474     1.0  0.92786  0.23892  0.43194  1.0000
  H   H1475     1.0  0.74754  0.21553  0.42901  1.0000
  C   C840      1.0  0.69150  0.36761  0.31340  1.0000
  C   C841      1.0  0.71405  0.23791  0.41390  1.0000
  H   H1476     1.0  0.57581  0.30690  0.43335  1.0000
  C   C842      1.0  0.81517  0.28666  0.36741  1.0000
  H   H1477     1.0  0.76195  0.24177  0.36325  1.0000
  H   H1478     1.0  0.79961  0.44620  0.29895  1.0000
  H   H1479     1.0  0.50775  0.25569  0.33817  1.0000
  H   H1480     1.0  0.60511  0.30820  0.42415  1.0000
  H   H1481     1.0  0.59968  0.27376  0.29229  1.0000
  H   H1482     1.0  0.72353  0.45128  0.43426  1.0000
  H   H1483     1.0  0.51196  0.37592  0.25710  1.0000
  C   C843      1.0  0.51803  0.22782  0.35200  1.0000
  C   C844      1.0  0.79037  0.45392  0.31036  1.0000
  H   H1484     1.0  0.69680  0.21951  0.40579  1.0000
  C   C845      1.0  0.78937  0.06160  0.40818  1.0000
  H   H1485     1.0  0.76910  0.25177  0.42876  1.0000
  C   C846      1.0  0.79162  0.27703  0.38226  1.0000
  C   C847      1.0  0.76292  0.23238  0.41908  1.0000
  H   H1486     1.0  0.71478  0.19388  0.40205  1.0000
  N   N47       1.0  0.74675  0.43489  0.28720  1.0000
  H   H1487     1.0  0.80510  0.24894  0.41391  1.0000
  C   C848      1.0  0.73842  0.24971  0.39907  1.0000
  H   H1488     1.0  0.80451  0.02580  0.42349  1.0000
  C   C849      1.0  0.97945  0.41204  0.25951  1.0000
  H   H1489     1.0  0.73204  0.25265  0.38262  1.0000
  H   H1490     1.0  0.79393  0.06580  0.46465  1.0000
  H   H1491     1.0  0.62193  0.31174  0.46165  1.0000
  H   H1492     1.0  0.58367  0.22297  0.46324  1.0000
  H   H1493     1.0  0.82847  0.30946  0.36917  1.0000
  H   H1494     1.0  0.75470  0.19144  0.37211  1.0000
  H   H1495     1.0  0.95558  0.29965  0.33149  1.0000
  C   C850      1.0  0.77179  0.24542  0.37957  1.0000
  H   H1496     1.0  0.82375  0.49618  0.30856  1.0000
  C   C851      1.0  0.77108  0.38954  0.25913  1.0000
  H   H1497     1.0  0.70422  0.35863  0.31436  1.0000
  C   C852      1.0  0.60931  0.27991  0.30875  1.0000
  H   H1498     1.0  0.72276  0.14155  0.37101  1.0000
  H   H1499     1.0  0.75287  0.27087  0.40574  1.0000
  C   C853      1.0  0.79386  0.22360  0.44202  1.0000
  H   H1500     1.0  0.78046  0.43894  0.32348  1.0000
  C   C854      1.0  0.98311  0.18216  0.48486  1.0000
  H   H1501     1.0  0.81195  0.22240  0.44159  1.0000
  H   H1502     1.0  0.63071  0.28780  0.30749  1.0000
  H   H1503     1.0  0.54900  0.23253  0.30200  1.0000
  C   C855      1.0  0.71586  0.15604  0.37448  1.0000
  H   H1504     1.0  0.69946  0.14629  0.38614  1.0000
  H   H1505     1.0  0.50711  0.27647  0.47930  1.0000
  N   N48       1.0  0.59358  0.22872  0.31648  1.0000
  C   C856      1.0  0.57627  0.21765  0.29597  1.0000
  C   C857      1.0  0.62023  0.23198  0.31276  1.0000
  C   C858      1.0  0.57998  0.20750  0.33390  1.0000
  H   H1506     1.0  0.61756  0.31233  0.33296  1.0000
  C   C859      1.0  0.70590  0.25907  0.41807  1.0000
  H   H1507     1.0  0.70606  0.11872  0.28199  1.0000
  C   C860      1.0  0.59643  0.21176  0.35521  1.0000
  C   C861      1.0  0.63225  0.24077  0.28982  1.0000
  H   H1508     1.0  0.86484  0.16764  0.30512  1.0000
  C   C862      1.0  0.58036  0.18931  0.37154  1.0000
  H   H1509     1.0  0.57405  0.19759  0.29068  1.0000
  H   H1510     1.0  0.58555  0.23143  0.28205  1.0000
  H   H1511     1.0  0.63497  0.24688  0.32517  1.0000
  H   H1512     1.0  0.61924  0.21203  0.31531  1.0000
  H   H1513     1.0  0.57346  0.18640  0.32717  1.0000
  H   H1514     1.0  0.56175  0.20671  0.33902  1.0000
  H   H1515     1.0  0.67058  0.04260  0.29025  1.0000
  H   H1516     1.0  0.60938  0.26331  0.33984  1.0000
  H   H1517     1.0  0.78173  0.28839  0.37758  1.0000
  H   H1518     1.0  0.76060  0.48724  0.26630  1.0000
  H   H1519     1.0  0.53642  0.19750  0.31009  1.0000
  N   N49       1.0  0.78745  0.05063  0.43094  1.0000
  H   H1520     1.0  0.60311  0.23206  0.36332  1.0000
  H   H1521     1.0  0.61403  0.21049  0.35176  1.0000
  C   C863      1.0  0.60059  0.30473  0.45975  1.0000
  H   H1522     1.0  0.75112  0.03432  0.39141  1.0000
  H   H1523     1.0  0.76529  0.47122  0.30871  1.0000
  H   H1524     1.0  0.57893  0.19433  0.43063  1.0000
  H   H1525     1.0  0.75875  0.10377  0.46878  1.0000
  H   H1526     1.0  0.57324  0.16846  0.36416  1.0000
  H   H1527     1.0  0.59304  0.19226  0.38612  1.0000
  H   H1528     1.0  0.56319  0.19048  0.37694  1.0000
  C   C864      1.0  0.54810  0.21296  0.29767  1.0000
  H   H1529     1.0  0.60238  0.35423  0.44897  1.0000
  H   H1530     1.0  0.78341  0.47447  0.28491  1.0000
  C   C865      1.0  0.54359  0.27693  0.47500  1.0000
  H   H1531     1.0  0.85649  0.15416  0.33218  1.0000
  C   C866      1.0  0.59764  0.28803  0.50441  1.0000
  H   H1532     1.0  0.59723  0.31652  0.47259  1.0000
  H   H1533     1.0  0.98449  0.41405  0.27727  1.0000
  H   H1534     1.0  0.51355  0.27215  0.45127  1.0000
  H   H1535     1.0  0.55676  0.21722  0.44533  1.0000
  C   C867      1.0  0.66547  0.29366  0.50090  1.0000
  H   H1536     1.0  0.58369  0.22162  0.41298  1.0000
  H   H1537     1.0  0.55490  0.29971  0.47360  1.0000
  H   H1538     1.0  0.66235  0.27311  0.49937  1.0000
  H   H1539     1.0  0.77306  0.37208  0.26453  1.0000
  C   C868      1.0  0.73057  0.44551  0.27681  1.0000
  H   H1540     1.0  0.54933  0.26366  0.44313  1.0000
  H   H1541     1.0  0.77240  0.43685  0.26158  1.0000
  H   H1542     1.0  0.77067  0.40280  0.29208  1.0000
  H   H1543     1.0  0.69343  0.05206  0.32674  1.0000
  H   H1544     1.0  0.70270  0.38283  0.28091  1.0000
  H   H1545     1.0  0.80533  0.48916  0.33337  1.0000
  C   C869      1.0  0.66107  0.24836  0.29019  1.0000
  H   H1546     1.0  0.61284  0.26962  0.44521  1.0000
  H   H1547     1.0  0.62110  0.22328  0.27780  1.0000
  C   C870      1.0  0.59103  0.26000  0.44546  1.0000
  H   H1548     1.0  0.53042  0.18201  0.27100  1.0000
  H   H1549     1.0  0.54367  0.27152  0.49232  1.0000
  C   C871      1.0  0.75414  0.42107  0.26973  1.0000
  H   H1550     1.0  0.85912  0.33047  0.26408  1.0000
  H   H1551     1.0  0.74445  0.02675  0.43115  1.0000
  H   H1552     1.0  0.52924  0.43934  0.26511  1.0000
  C   C872      1.0  0.67362  0.34660  0.50519  1.0000
  C   C873      1.0  0.97908  0.16301  0.50079  1.0000
  H   H1553     1.0  0.78123  0.07033  0.36504  1.0000
  H   H1554     1.0  0.58378  0.29542  0.50563  1.0000
  C   C874      1.0  0.76139  0.02386  0.43341  1.0000
  H   H1555     1.0  0.54272  0.21723  0.26288  1.0000
  C   C875      1.0  0.80298  0.01152  0.49941  1.0000
  Fe  Fe90      1.0  0.84768  0.08853  0.50099  1.0000
  C   C876      1.0  0.74441  0.46742  0.25899  1.0000
  H   H1556     1.0  0.71622  0.48111  0.25985  1.0000
  S   S185      1.0  0.81047  0.04579  0.50546  1.0000
  H   H1557     1.0  0.75877  0.00884  0.42012  1.0000
  H   H1558     1.0  0.73869  0.41181  0.25640  1.0000
  Fe  Fe91      1.0  0.75817  0.15800  0.68940  1.0000
  S   S186      1.0  0.77202  0.19957  0.70526  1.0000
  S   S187      1.0  0.71790  0.11963  0.69637  1.0000
  Fe  Fe92      1.0  0.80692  0.18156  0.66016  1.0000
  S   S188      1.0  0.82391  0.22487  0.67409  1.0000
  S   S189      1.0  0.83073  0.16817  0.63967  1.0000
  Fe  Fe93      1.0  0.81256  0.20550  0.70684  1.0000
  S   S190      1.0  0.83765  0.22029  0.73849  1.0000
  Fe  Fe94      1.0  0.78221  0.21624  0.67136  1.0000
  S   S191      1.0  0.77655  0.25230  0.66406  1.0000
  S   S192      1.0  0.79782  0.16244  0.69341  1.0000
  S   S193      1.0  0.76594  0.17418  0.65497  1.0000
  H   H1559     1.0  0.85786  0.14862  0.61374  1.0000
  C   C877      1.0  0.90802  0.29260  0.73069  1.0000
  H   H1560     1.0  0.78489  0.45717  0.62233  1.0000
  Fe  Fe95      1.0  0.66321  0.32360  0.58223  1.0000
  S   S194      1.0  0.63916  0.27791  0.58709  1.0000
  S   S195      1.0  0.67125  0.34628  0.55011  1.0000
  Fe  Fe96      1.0  0.67245  0.33654  0.63133  1.0000
  S   S196      1.0  0.64873  0.29138  0.63999  1.0000
  S   S197      1.0  0.69350  0.36932  0.65872  1.0000
  Fe  Fe97      1.0  0.67001  0.28479  0.61264  1.0000
  S   S198      1.0  0.68178  0.25223  0.61316  1.0000
  Fe  Fe98      1.0  0.61947  0.28748  0.61416  1.0000
  S   S199      1.0  0.57456  0.25834  0.61388  1.0000
  S   S200      1.0  0.69576  0.33006  0.60567  1.0000
  S   S201      1.0  0.64153  0.33310  0.60758  1.0000
  H   H1561     1.0  0.51658  0.24920  0.55218  1.0000
  S   S202      1.0  0.87492  0.11681  0.52838  1.0000
  S   S203      1.0  0.85309  0.17317  0.53729  1.0000
  C   C878      1.0  0.65289  0.14346  0.73767  1.0000
  H   H1562     1.0  0.98747  0.18752  0.57523  1.0000
  C   C879      1.0  0.72330  0.46188  0.65333  1.0000
  C   C880      1.0  0.70707  0.44297  0.63662  1.0000
  C   C881      1.0  0.69787  0.41459  0.63799  1.0000
  C   C882      1.0  0.70451  0.40480  0.65628  1.0000
  C   C883      1.0  0.72056  0.42369  0.67311  1.0000
  C   C884      1.0  0.73018  0.45217  0.67155  1.0000
  H   H1563     1.0  0.70157  0.45028  0.62250  1.0000
  H   H1564     1.0  0.68546  0.40024  0.62498  1.0000
  H   H1565     1.0  0.72573  0.41627  0.68735  1.0000
  H   H1566     1.0  0.74266  0.46651  0.68452  1.0000
  C   C885      1.0  0.54195  0.26931  0.66863  1.0000
  C   C886      1.0  0.56037  0.27298  0.65269  1.0000
  C   C887      1.0  0.55274  0.25402  0.63507  1.0000
  C   C888      1.0  0.52665  0.23119  0.63376  1.0000
  H   H1567     1.0  0.54796  0.28422  0.68207  1.0000
  H   H1568     1.0  0.58037  0.29062  0.65386  1.0000
  C   C889      1.0  0.78454  0.12019  0.53135  1.0000
  C   C890      1.0  0.66652  0.30499  0.52185  1.0000
  C   C891      1.0  0.67048  0.33148  0.52411  1.0000
  H   H1569     1.0  0.76458  0.25564  0.71501  1.0000
  H   H1570     1.0  0.66420  0.29319  0.53626  1.0000
  H   H1571     1.0  0.72196  0.41271  0.57024  1.0000
  C   C892      1.0  0.70868  0.10166  0.72134  1.0000
  C   C893      1.0  0.72726  0.10665  0.73791  1.0000
  H   H1572     1.0  0.87123  0.16177  0.72163  1.0000
  H   H1573     1.0  0.63075  0.48739  0.69860  1.0000
  H   H1574     1.0  0.68001  0.23128  0.70098  1.0000
  H   H1575     1.0  0.89391  0.36541  0.74864  1.0000
  C   C894      1.0  0.80626  0.49086  0.65729  1.0000
  C   C895      1.0  0.75046  0.25218  0.64934  1.0000
  C   C896      1.0  0.73308  0.23018  0.63527  1.0000
  C   C897      1.0  0.71240  0.23076  0.62416  1.0000
  C   C898      1.0  0.70878  0.25324  0.62700  1.0000
  C   C899      1.0  0.72626  0.27535  0.64097  1.0000
  C   C900      1.0  0.74703  0.27484  0.65201  1.0000
  H   H1576     1.0  0.73568  0.21281  0.63282  1.0000
  H   H1577     1.0  0.69907  0.21364  0.61328  1.0000
  H   H1578     1.0  0.72371  0.29277  0.64323  1.0000
  H   H1579     1.0  0.76045  0.29202  0.66279  1.0000
  C   C901      1.0  0.83639  0.16960  0.61110  1.0000
  C   C902      1.0  0.82740  0.18197  0.59668  1.0000
  C   C903      1.0  0.83279  0.18295  0.57420  1.0000
  C   C904      1.0  0.84687  0.17124  0.56578  1.0000
  C   C905      1.0  0.85569  0.15866  0.58018  1.0000
  C   C906      1.0  0.85064  0.15806  0.60272  1.0000
  H   H1580     1.0  0.81653  0.19106  0.60286  1.0000
  H   H1581     1.0  0.82598  0.19285  0.56323  1.0000
  H   H1582     1.0  0.86677  0.14983  0.57400  1.0000
  H   H1583     1.0  0.97249  0.27904  0.71948  1.0000
  C   C907      1.0  0.65821  0.48357  0.72120  1.0000
  C   C908      1.0  0.69732  0.48141  0.71269  1.0000
  N   N50       1.0  0.77447  0.41583  0.63156  1.0000
  H   H1584     1.0  0.70574  0.38704  0.59060  1.0000
  C   C909      1.0  0.75109  0.40072  0.61564  1.0000
  C   C910      1.0  0.76750  0.40000  0.65252  1.0000
  C   C911      1.0  0.79848  0.41674  0.62270  1.0000
  C   C912      1.0  0.92449  0.20927  0.62140  1.0000
  H   H1585     1.0  0.93810  0.23087  0.61641  1.0000
  C   C913      1.0  0.75755  0.36865  0.65023  1.0000
  N   N51       1.0  0.67006  0.47352  0.70455  1.0000
  H   H1586     1.0  0.72730  0.46509  0.75465  1.0000
  C   C914      1.0  0.75000  0.35498  0.67243  1.0000
  H   H1587     1.0  0.62439  0.39267  0.67702  1.0000
  C   C915      1.0  0.51598  0.31027  0.73248  1.0000
  H   H1588     1.0  0.84968  0.04061  0.57118  1.0000
  H   H1589     1.0  0.67205  0.50587  0.72526  1.0000
  H   H1590     1.0  0.75200  0.40180  0.66106  1.0000
  H   H1591     1.0  0.78484  0.40903  0.66407  1.0000
  H   H1592     1.0  0.81447  0.42462  0.63552  1.0000
  H   H1593     1.0  0.79381  0.39546  0.61846  1.0000
  C   C916      1.0  0.70132  0.03807  0.67930  1.0000
  H   H1594     1.0  0.87084  0.31597  0.73800  1.0000
  H   H1595     1.0  0.87617  0.27872  0.66490  1.0000
  H   H1596     1.0  0.77387  0.03456  0.54093  1.0000
  H   H1597     1.0  0.77307  0.36537  0.64370  1.0000
  H   H1598     1.0  0.73980  0.35750  0.63928  1.0000
  C   C917      1.0  0.00077  0.16116  0.50794  1.0000
  C   C918      1.0  0.74687  0.41826  0.59866  1.0000
  H   H1599     1.0  0.89438  0.21648  0.63204  1.0000
  H   H1600     1.0  0.52785  0.03252  0.74888  1.0000
  H   H1601     1.0  0.74103  0.43173  0.60706  1.0000
  H   H1602     1.0  0.74310  0.33268  0.67042  1.0000
  H   H1603     1.0  0.76726  0.36476  0.68404  1.0000
  H   H1604     1.0  0.73371  0.35669  0.67941  1.0000
  C   C919      1.0  0.85731  0.16788  0.71561  1.0000
  H   H1605     1.0  0.73858  0.49876  0.74400  1.0000
  H   H1606     1.0  0.72031  0.25129  0.71587  1.0000
  H   H1607     1.0  0.78775  0.49005  0.66160  1.0000
  H   H1608     1.0  0.73653  0.47152  0.72646  1.0000
  C   C920      1.0  0.67263  0.48673  0.68278  1.0000
  H   H1609     1.0  0.75179  0.38387  0.60660  1.0000
  C   C921      1.0  0.51585  0.24653  0.66726  1.0000
  C   C922      1.0  0.66301  0.42815  0.68691  1.0000
  H   H1610     1.0  0.89260  0.18638  0.64297  1.0000
  S   S204      1.0  0.73356  0.49715  0.65103  1.0000
  H   H1611     1.0  0.84499  0.16711  0.72942  1.0000
  H   H1612     1.0  0.81438  0.45483  0.60368  1.0000
  C   C923      1.0  0.72217  0.23356  0.72060  1.0000
  C   C924      1.0  0.67388  0.06651  0.74393  1.0000
  C   C925      1.0  0.63084  0.47919  0.71488  1.0000
  H   H1613     1.0  0.60567  0.29194  0.53949  1.0000
  H   H1614     1.0  0.70813  0.47775  0.69962  1.0000
  C   C926      1.0  0.86991  0.24976  0.74266  1.0000
  C   C927      1.0  0.80148  0.46168  0.65476  1.0000
  C   C928      1.0  0.77969  0.44439  0.63703  1.0000
  H   H1615     1.0  0.98923  0.41516  0.73460  1.0000
  C   C929      1.0  0.50837  0.22729  0.64988  1.0000
  N   N52       1.0  0.79181  0.07492  0.57557  1.0000
  C   C930      1.0  0.81521  0.07507  0.56598  1.0000
  C   C931      1.0  0.78800  0.09665  0.56511  1.0000
  C   C932      1.0  0.79793  0.08226  0.59973  1.0000
  C   C933      1.0  0.76688  0.04673  0.57349  1.0000
  H   H1616     1.0  0.75031  0.04571  0.54106  1.0000
  C   C934      1.0  0.82152  0.05377  0.57519  1.0000
  C   C935      1.0  0.77972  0.08997  0.61198  1.0000
  C   C936      1.0  0.79434  0.10211  0.54050  1.0000
  Fe  Fe99      1.0  0.86567  0.14815  0.51661  1.0000
  H   H1617     1.0  0.91738  0.30791  0.71829  1.0000
  C   C937      1.0  0.84573  0.05622  0.56446  1.0000
  C   C938      1.0  0.78513  0.09241  0.63669  1.0000
  H   H1618     1.0  0.83326  0.09610  0.56824  1.0000
  H   H1619     1.0  0.81277  0.07121  0.54803  1.0000
  H   H1620     1.0  0.76752  0.09197  0.56755  1.0000
  H   H1621     1.0  0.80117  0.11722  0.57335  1.0000
  H   H1622     1.0  0.81851  0.10015  0.60231  1.0000
  H   H1623     1.0  0.79712  0.06489  0.60862  1.0000
  H   H1624     1.0  0.76875  0.03160  0.58350  1.0000
  H   H1625     1.0  0.74999  0.04728  0.58047  1.0000
  H   H1626     1.0  0.65779  0.15856  0.75145  1.0000
  H   H1627     1.0  0.65304  0.47765  0.67424  1.0000
  H   H1628     1.0  0.82586  0.05705  0.59305  1.0000
  H   H1629     1.0  0.80474  0.03233  0.57189  1.0000
  H   H1630     1.0  0.75853  0.07433  0.60898  1.0000
  H   H1631     1.0  0.78332  0.11029  0.60671  1.0000
  H   H1632     1.0  0.81608  0.11325  0.53860  1.0000
  H   H1633     1.0  0.78564  0.08296  0.53023  1.0000
  H   H1634     1.0  0.69161  0.16531  0.72476  1.0000
  H   H1635     1.0  0.81374  0.50227  0.64192  1.0000
  H   H1636     1.0  0.61545  0.45682  0.71463  1.0000
  H   H1637     1.0  0.76486  0.43171  0.58948  1.0000
  H   H1638     1.0  0.96370  0.18226  0.55414  1.0000
  H   H1639     1.0  0.66815  0.19378  0.72333  1.0000
  H   H1640     1.0  0.79632  0.42273  0.58768  1.0000
  H   H1641     1.0  0.77945  0.07198  0.64331  1.0000
  H   H1642     1.0  0.80638  0.10733  0.64059  1.0000
  H   H1643     1.0  0.77345  0.10005  0.64490  1.0000
  H   H1644     1.0  0.66685  0.43641  0.67018  1.0000
  H   H1645     1.0  0.84408  0.15291  0.70257  1.0000
  H   H1646     1.0  0.51825  0.29686  0.74416  1.0000
  H   H1647     1.0  0.65545  0.12655  0.74360  1.0000
  C   C939      1.0  0.54375  0.33474  0.72854  1.0000
  H   H1648     1.0  0.83299  0.41439  0.59373  1.0000
  N   N53       1.0  0.90637  0.22737  0.67814  1.0000
  C   C940      1.0  0.92229  0.22536  0.65999  1.0000
  C   C941      1.0  0.92511  0.24710  0.69581  1.0000
  C   C942      1.0  0.88853  0.19882  0.68674  1.0000
  C   C943      1.0  0.88948  0.23824  0.67000  1.0000
  C   C944      1.0  0.90412  0.26583  0.65770  1.0000
  C   C945      1.0  0.90624  0.20841  0.63916  1.0000
  C   C946      1.0  0.81016  0.43342  0.60181  1.0000
  C   C947      1.0  0.94123  0.23734  0.70885  1.0000
  C   C948      1.0  0.88507  0.27485  0.65045  1.0000
  H   H1649     1.0  0.69753  0.03646  0.66133  1.0000
  H   H1650     1.0  0.93316  0.21551  0.66592  1.0000
  H   H1651     1.0  0.93793  0.24635  0.65499  1.0000
  H   H1652     1.0  0.93982  0.26719  0.68874  1.0000
  H   H1653     1.0  0.91439  0.25241  0.70777  1.0000
  H   H1654     1.0  0.89991  0.18874  0.69050  1.0000
  H   H1655     1.0  0.54303  0.34862  0.71632  1.0000
  H   H1656     1.0  0.87287  0.22250  0.65929  1.0000
  H   H1657     1.0  0.87977  0.24185  0.68397  1.0000
  H   H1658     1.0  0.91345  0.26377  0.64279  1.0000
  H   H1659     1.0  0.91963  0.28270  0.66837  1.0000
  H   H1660     1.0  0.94328  0.39503  0.74548  1.0000
  H   H1661     1.0  0.76121  0.44268  0.64274  1.0000
  C   C949      1.0  0.69851  0.46691  0.73360  1.0000
  H   H1662     1.0  0.88517  0.21113  0.72067  1.0000
  C   C950      1.0  0.50707  0.23203  0.56379  1.0000
  H   H1663     1.0  0.95434  0.23436  0.69791  1.0000
  H   H1664     1.0  0.94618  0.26164  0.73863  1.0000
  H   H1665     1.0  0.89590  0.29432  0.64134  1.0000
  H   H1666     1.0  0.86911  0.25875  0.63952  1.0000
  H   H1667     1.0  0.61118  0.26711  0.52578  1.0000
  C   C951      1.0  0.75073  0.24554  0.72858  1.0000
  H   H1668     1.0  0.50777  0.10933  0.73982  1.0000
  N   N54       1.0  0.68692  0.19832  0.69227  1.0000
  C   C952      1.0  0.71515  0.21306  0.70088  1.0000
  C   C953      1.0  0.68365  0.18109  0.67191  1.0000
  C   C954      1.0  0.68093  0.22026  0.68609  1.0000
  C   C955      1.0  0.66774  0.18067  0.70940  1.0000
  C   C956      1.0  0.67118  0.15742  0.71861  1.0000
  H   H1669     1.0  0.71189  0.01748  0.71596  1.0000
  C   C957      1.0  0.65482  0.21022  0.67275  1.0000
  C   C958      1.0  0.70104  0.16809  0.67044  1.0000
  C   C959      1.0  0.69224  0.14743  0.65111  1.0000
  C   C960      1.0  0.87245  0.19720  0.70701  1.0000
  C   C961      1.0  0.65053  0.23420  0.66896  1.0000
  H   H1670     1.0  0.72863  0.22501  0.68756  1.0000
  H   H1671     1.0  0.72107  0.19828  0.70569  1.0000
  H   H1672     1.0  0.66257  0.16436  0.66928  1.0000
  H   H1673     1.0  0.68869  0.19387  0.65715  1.0000
  H   H1674     1.0  0.69724  0.23629  0.67621  1.0000
  H   H1675     1.0  0.68978  0.02867  0.72127  1.0000
  H   H1676     1.0  0.55310  0.34665  0.74405  1.0000
  H   H1677     1.0  0.64716  0.17011  0.70268  1.0000
  H   H1678     1.0  0.72937  0.38587  0.57296  1.0000
  H   H1679     1.0  0.66582  0.14111  0.70578  1.0000
  C   C962      1.0  0.68197  0.08143  0.72444  1.0000
  H   H1680     1.0  0.63940  0.38745  0.70103  1.0000
  H   H1681     1.0  0.63744  0.19410  0.68137  1.0000
  H   H1682     1.0  0.65528  0.20169  0.65639  1.0000
  H   H1683     1.0  0.72195  0.18454  0.66800  1.0000
  H   H1684     1.0  0.70052  0.15728  0.68542  1.0000
  H   H1685     1.0  0.67157  0.13014  0.65304  1.0000
  H   H1686     1.0  0.69380  0.15784  0.63550  1.0000
  H   H1687     1.0  0.70510  0.13861  0.65043  1.0000
  H   H1688     1.0  0.85779  0.20291  0.70249  1.0000
  C   C963      1.0  0.59805  0.27562  0.52631  1.0000
  H   H1689     1.0  0.93617  0.20034  0.62732  1.0000
  H   H1690     1.0  0.63259  0.22699  0.65839  1.0000
  H   H1691     1.0  0.52069  0.21633  0.62029  1.0000
  H   H1692     1.0  0.66762  0.25120  0.66056  1.0000
  H   H1693     1.0  0.63301  0.43741  0.69377  1.0000
  H   H1694     1.0  0.84233  0.05238  0.54649  1.0000
  H   H1695     1.0  0.64710  0.43242  0.71755  1.0000
  H   H1696     1.0  0.79549  0.45207  0.67097  1.0000
  H   H1697     1.0  0.63191  0.13438  0.73238  1.0000
  H   H1698     1.0  0.64784  0.24237  0.68471  1.0000
  C   C964      1.0  0.88220  0.26975  0.72677  1.0000
  H   H1699     1.0  0.74787  0.12213  0.73581  1.0000
  H   H1700     1.0  0.55617  0.32698  0.72203  1.0000
  H   H1701     1.0  0.68752  0.44412  0.73116  1.0000
  C   C965      1.0  0.72468  0.39979  0.58216  1.0000
  C   C966      1.0  0.00355  0.21573  0.54817  1.0000
  S   S205      1.0  0.94777  0.14164  0.51284  1.0000
  C   C967      1.0  0.95858  0.25877  0.72669  1.0000
  C   C968      1.0  0.98135  0.19824  0.56375  1.0000
  H   H1702     1.0  0.75340  0.22899  0.73515  1.0000
  H   H1703     1.0  0.62245  0.48635  0.74825  1.0000
  C   C969      1.0  0.64327  0.39700  0.68475  1.0000
  H   H1704     1.0  0.92814  0.21765  0.71709  1.0000
  H   H1705     1.0  0.51880  0.23901  0.57945  1.0000
  H   H1706     1.0  0.82048  0.46369  0.65049  1.0000
  H   H1707     1.0  0.99790  0.14635  0.52017  1.0000
  H   H1708     1.0  0.84381  0.44689  0.58097  1.0000
  C   C970      1.0  0.65223  0.44260  0.70146  1.0000
  C   C971      1.0  0.83611  0.43537  0.59628  1.0000
  H   H1709     1.0  0.68446  0.48197  0.67161  1.0000
  H   H1710     1.0  0.82123  0.50253  0.67060  1.0000
  H   H1711     1.0  0.70926  0.22321  0.73456  1.0000
  C   C972      1.0  0.72701  0.47620  0.73997  1.0000
  S   S206      1.0  0.95438  0.32473  0.75443  1.0000
  H   H1712     1.0  0.65152  0.38724  0.67427  1.0000
  H   H1713     1.0  0.87172  0.26772  0.71157  1.0000
  H   H1714     1.0  0.73229  0.39016  0.62465  1.0000
  H   H1715     1.0  0.66741  0.07749  0.71177  1.0000
  H   H1716     1.0  0.69562  0.05234  0.68645  1.0000
  H   H1717     1.0  0.76262  0.10882  0.53092  1.0000
  H   H1718     1.0  0.97026  0.25167  0.73566  1.0000
  C   C973      1.0  0.75775  0.03421  0.55006  1.0000
  H   H1719     1.0  0.85115  0.44655  0.60962  1.0000
  H   H1720     1.0  0.68158  0.43107  0.69402  1.0000
  H   H1721     1.0  0.86344  0.07711  0.56776  1.0000
  H   H1722     1.0  0.87361  0.18515  0.67396  1.0000
  H   H1723     1.0  0.79236  0.13951  0.54146  1.0000
  H   H1724     1.0  0.72281  0.04703  0.68242  1.0000
  H   H1725     1.0  0.65547  0.47296  0.73692  1.0000
  H   H1726     1.0  0.91245  0.19692  0.60679  1.0000
  H   H1727     1.0  0.50812  0.29897  0.71658  1.0000
  H   H1728     1.0  0.97582  0.21134  0.57314  1.0000
  H   H1729     1.0  0.65322  0.05160  0.74631  1.0000
  H   H1730     1.0  0.69018  0.47209  0.74771  1.0000
  H   H1731     1.0  0.60285  0.48967  0.72716  1.0000
  H   H1732     1.0  0.75577  0.26126  0.74186  1.0000
  C   C974      1.0  0.87362  0.32232  0.75560  1.0000
  C   C975      1.0  0.62285  0.49381  0.73150  1.0000
  C   C976      1.0  0.69075  0.01102  0.71403  1.0000
  H   H1733     1.0  0.99588  0.22469  0.53631  1.0000
  H   H1734     1.0  0.57784  0.25887  0.53043  1.0000
  C   C977      1.0  0.92174  0.29587  0.75058  1.0000
  H   H1735     1.0  0.64658  0.01389  0.71711  1.0000
  H   H1736     1.0  0.66747  0.49697  0.60662  1.0000
  H   H1737     1.0  0.93902  0.45841  0.75367  1.0000
  C   C978      1.0  0.98333  0.40636  0.75108  1.0000
  H   H1738     1.0  0.97888  0.38476  0.75024  1.0000
  H   H1739     1.0  0.72259  0.02328  0.75161  1.0000
  H   H1740     1.0  0.91486  0.35122  0.75243  1.0000
  H   H1741     1.0  0.70953  0.50403  0.71646  1.0000
  H   H1742     1.0  0.50751  0.21403  0.55684  1.0000
  H   H1743     1.0  0.79164  0.12611  0.51447  1.0000
  C   C979      1.0  0.68521  0.00942  0.68910  1.0000
  H   H1744     1.0  0.68359  0.49251  0.58359  1.0000
  H   H1745     1.0  0.67668  0.00869  0.75583  1.0000
  H   H1746     1.0  0.67679  0.36715  0.50680  1.0000
  H   H1747     1.0  0.55567  0.06586  0.86372  1.0000
  H   H1748     1.0  0.91117  0.45463  0.76863  1.0000
  S   S207      1.0  0.55990  0.00946  0.82131  1.0000
  H   H1749     1.0  0.97010  0.11075  0.98442  1.0000
  H   H1750     1.0  0.87162  0.15047  0.92335  1.0000
  H   H1751     1.0  0.71027  0.03609  0.94242  1.0000
  Fe  Fe100     1.0  0.98111  0.33828  0.78524  1.0000
  H   H1752     1.0  0.87658  0.30741  0.76486  1.0000
  S   S208      1.0  0.96911  0.34280  0.81898  1.0000
  C   C980      1.0  0.89977  0.11274  0.99482  1.0000
  S   S209      1.0  0.68378  0.05279  0.78514  1.0000
  C   C981      1.0  0.80264  0.04507  0.93591  1.0000
  C   C982      1.0  0.89762  0.35167  0.75871  1.0000
  H   H1753     1.0  0.60009  0.04709  0.89152  1.0000
  Fe  Fe101     1.0  0.64466  0.01636  0.79644  1.0000
  C   C983      1.0  0.79311  0.09027  0.97875  1.0000
  H   H1754     1.0  0.80655  0.05767  0.92121  1.0000
  C   C984      1.0  0.95905  0.40697  0.75801  1.0000
  H   H1755     1.0  0.84803  0.04756  0.98025  1.0000
  C   C985      1.0  0.98801  0.11462  0.99380  1.0000
  H   H1756     1.0  0.78218  0.07247  0.98976  1.0000
  H   H1757     1.0  0.53629  0.03214  0.77721  1.0000
  C   C986      1.0  0.96302  0.36600  0.00240  1.0000
  H   H1758     1.0  0.54083  0.48524  0.90738  1.0000
  H   H1759     1.0  0.97995  0.23829  0.91899  1.0000
  C   C987      1.0  0.88446  0.08761  0.98275  1.0000
  H   H1760     1.0  0.52054  0.49697  0.91943  1.0000
  H   H1761     1.0  0.84234  0.05182  0.93777  1.0000
  C   C988      1.0  0.51293  0.50134  0.81451  1.0000
  C   C989      1.0  0.55105  0.50033  0.94054  1.0000
  H   H1762     1.0  0.55530  0.03660  0.89300  1.0000
  C   C990      1.0  0.94686  0.27520  0.98160  1.0000
  H   H1763     1.0  0.74278  0.07767  0.96437  1.0000
  N   N55       1.0  0.79336  0.07967  0.95596  1.0000
  H   H1764     1.0  0.87420  0.23788  0.77501  1.0000
  H   H1765     1.0  0.92565  0.25308  0.95162  1.0000
  H   H1766     1.0  0.57129  0.50388  0.93985  1.0000
  C   C991      1.0  0.76493  0.06135  0.94812  1.0000
  H   H1767     1.0  0.80423  0.12022  0.94493  1.0000
  C   C992      1.0  0.00213  0.49886  0.80887  1.0000
  H   H1768     1.0  0.82923  0.13116  0.98170  1.0000
  H   H1769     1.0  0.00013  0.41882  0.76274  1.0000
  H   H1770     1.0  0.60821  0.49786  0.86226  1.0000
  H   H1771     1.0  0.50639  0.32791  0.75919  1.0000
  H   H1772     1.0  0.57296  0.47433  0.86262  1.0000
  C   C993      1.0  0.98216  0.26363  0.89194  1.0000
  C   C994      1.0  0.80756  0.10317  0.94039  1.0000
  H   H1773     1.0  0.92840  0.44403  0.80221  1.0000
  C   C995      1.0  0.91661  0.40973  0.77841  1.0000
  H   H1774     1.0  0.73337  0.01234  0.78734  1.0000
  H   H1775     1.0  0.84086  0.13767  0.90832  1.0000
  H   H1776     1.0  0.57431  0.01761  0.92029  1.0000
  C   C996      1.0  0.97687  0.08746  0.95053  1.0000
  H   H1777     1.0  0.96943  0.24604  0.88123  1.0000
  H   H1778     1.0  0.75455  0.04291  0.95850  1.0000
  H   H1779     1.0  0.51225  0.44123  0.82045  1.0000
  C   C997      1.0  0.97561  0.29382  0.99087  1.0000
  C   C998      1.0  0.51314  0.00875  0.82439  1.0000
  Fe  Fe102     1.0  0.96512  0.18269  0.99586  1.0000
  H   H1780     1.0  0.98666  0.49953  0.84031  1.0000
  H   H1781     1.0  0.85542  0.32131  0.76116  1.0000
  Fe  Fe103     1.0  0.00499  0.38620  0.81903  1.0000
  H   H1782     1.0  0.76392  0.05313  0.93122  1.0000
  C   C999      1.0  0.97493  0.06959  0.93072  1.0000
  C   C1000     1.0  0.52242  0.48341  0.81607  1.0000
  H   H1783     1.0  0.78243  0.10151  0.97885  1.0000
  H   H1784     1.0  0.79579  0.04635  0.97034  1.0000
  Fe  Fe104     1.0  0.99638  0.32915  0.83168  1.0000
  C   C1001     1.0  0.74797  0.07490  0.94754  1.0000
  H   H1785     1.0  0.84776  0.15829  0.93332  1.0000
  H   H1786     1.0  0.88340  0.35659  0.79002  1.0000
  H   H1787     1.0  0.57971  0.06198  0.84911  1.0000
  H   H1788     1.0  0.58728  0.49998  0.84176  1.0000
  C   C1002     1.0  0.80520  0.06173  0.95723  1.0000
  H   H1789     1.0  0.70668  0.01849  0.78973  1.0000
  H   H1790     1.0  0.79902  0.09642  0.92346  1.0000
  C   C1003     1.0  0.85015  0.14218  0.92498  1.0000
  C   C1004     1.0  0.90245  0.36086  0.78318  1.0000
  H   H1791     1.0  0.89220  0.08425  0.96789  1.0000
  C   C1005     1.0  0.95046  0.39569  0.78138  1.0000
  C   C1006     1.0  0.83783  0.11593  0.93827  1.0000
  C   C1007     1.0  0.82025  0.11092  0.98975  1.0000
  C   C1008     1.0  0.72192  0.05660  0.93480  1.0000
  S   S210      1.0  0.96315  0.22142  0.99800  1.0000
  H   H1792     1.0  0.84188  0.10115  0.92972  1.0000
  H   H1793     1.0  0.96047  0.07409  0.96147  1.0000
  H   H1794     1.0  0.91151  0.35360  0.82598  1.0000
  C   C1009     1.0  0.58880  0.49588  0.85926  1.0000
  H   H1795     1.0  0.91473  0.38294  0.85766  1.0000
  H   H1796     1.0  0.59609  0.03323  0.86440  1.0000
  N   N56       1.0  0.92394  0.39044  0.78855  1.0000
  C   C1010     1.0  0.99240  0.29056  0.88421  1.0000
  H   H1797     1.0  0.99699  0.14907  0.96485  1.0000
  C   C1011     1.0  0.92476  0.39490  0.81311  1.0000
  C   C1012     1.0  0.95855  0.33690  0.00070  1.0000
  H   H1798     1.0  0.97364  0.10397  0.94483  1.0000
  H   H1799     1.0  0.54345  0.49162  0.81582  1.0000
  C   C1013     1.0  0.92887  0.37501  0.82727  1.0000
  H   H1800     1.0  0.96657  0.41084  0.79270  1.0000
  C   C1014     1.0  0.85925  0.06670  0.98967  1.0000
  H   H1801     1.0  0.75856  0.09530  0.93973  1.0000
  H   H1802     1.0  0.63512  0.04587  0.89952  1.0000
  C   C1015     1.0  0.93264  0.38378  0.85149  1.0000
  H   H1803     1.0  0.90709  0.34625  0.79097  1.0000
  C   C1016     1.0  0.93436  0.44067  0.78584  1.0000
  C   C1017     1.0  0.50650  0.04286  0.77211  1.0000
  H   H1804     1.0  0.98328  0.27966  0.99187  1.0000
  H   H1805     1.0  0.90625  0.39354  0.81848  1.0000
  H   H1806     1.0  0.94123  0.41609  0.81801  1.0000
  H   H1807     1.0  0.61745  0.02690  0.92312  1.0000
  S   S211      1.0  0.74373  0.01086  0.99867  1.0000
  H   H1808     1.0  0.82634  0.07409  0.96227  1.0000
  H   H1809     1.0  0.94994  0.40510  0.85410  1.0000
  C   C1018     1.0  0.90933  0.27607  0.76655  1.0000
  S   S212      1.0  0.98401  0.29467  0.85680  1.0000
  C   C1019     1.0  0.57238  0.06245  0.86565  1.0000
  H   H1810     1.0  0.83400  0.10338  0.98884  1.0000
  H   H1811     1.0  0.93627  0.36958  0.86110  1.0000
  H   H1812     1.0  0.95123  0.37652  0.78271  1.0000
  H   H1813     1.0  0.99015  0.08230  0.91870  1.0000
  C   C1020     1.0  0.00223  0.45154  0.82384  1.0000
  H   H1814     1.0  0.91962  0.27830  0.78192  1.0000
  H   H1815     1.0  0.84845  0.12133  0.95429  1.0000
  H   H1816     1.0  0.71012  0.06665  0.93492  1.0000
  S   S213      1.0  0.93150  0.13847  0.98492  1.0000
  H   H1817     1.0  0.72559  0.05348  0.91752  1.0000
  H   H1818     1.0  0.95523  0.25259  0.95709  1.0000
  H   H1819     1.0  0.51091  0.05281  0.78868  1.0000
  H   H1820     1.0  0.94662  0.37506  0.82205  1.0000
  C   C1021     1.0  0.98809  0.25913  0.91342  1.0000
  H   H1821     1.0  0.58842  0.08003  0.87550  1.0000
  H   H1822     1.0  0.73382  0.09548  0.76991  1.0000
  C   C1022     1.0  0.54104  0.50162  0.91768  1.0000
  C   C1023     1.0  0.64811  0.02028  0.91261  1.0000
  C   C1024     1.0  0.93197  0.45989  0.77007  1.0000
  C   C1025     1.0  0.58593  0.02994  0.88028  1.0000
  H   H1823     1.0  0.81714  0.02045  0.95031  1.0000
  C   C1026     1.0  0.62586  0.02551  0.90741  1.0000
  Fe  Fe105     1.0  0.00116  0.24231  0.97935  1.0000
  C   C1027     1.0  0.56296  0.03508  0.87692  1.0000
  C   C1028     1.0  0.00454  0.28158  0.92757  1.0000
  H   H1824     1.0  0.78230  0.02675  0.93409  1.0000
  H   H1825     1.0  0.95742  0.28364  0.94730  1.0000
  C   C1029     1.0  0.99354  0.46561  0.83720  1.0000
  C   C1030     1.0  0.00379  0.09969  0.96311  1.0000
  H   H1826     1.0  0.81889  0.02235  0.92097  1.0000
  H   H1827     1.0  0.98766  0.30894  0.97823  1.0000
  H   H1828     1.0  0.91644  0.40844  0.76031  1.0000
  C   C1031     1.0  0.71922  0.09146  0.75725  1.0000
  H   H1829     1.0  0.50768  0.49041  0.85846  1.0000
  H   H1830     1.0  0.89593  0.40326  0.78241  1.0000
  H   H1831     1.0  0.98680  0.45831  0.85344  1.0000
  H   H1832     1.0  0.99887  0.34888  0.99836  1.0000
  C   C1032     1.0  0.82150  0.03435  0.93635  1.0000
  H   H1833     1.0  0.54425  0.49232  0.87239  1.0000
  C   C1033     1.0  0.94637  0.26564  0.95797  1.0000
  H   H1834     1.0  0.54660  0.01853  0.86669  1.0000
  S   S214      1.0  0.00129  0.42163  0.83400  1.0000
  H   H1835     1.0  0.54833  0.06477  0.76429  1.0000
  H   H1836     1.0  0.94566  0.36584  0.99517  1.0000
  H   H1837     1.0  0.65814  0.02039  0.89739  1.0000
  H   H1838     1.0  0.97760  0.05249  0.93589  1.0000
  H   H1839     1.0  0.95515  0.06046  0.92259  1.0000
  H   H1840     1.0  0.93565  0.28578  0.98197  1.0000
  H   H1841     1.0  0.99927  0.27109  0.81779  1.0000
  H   H1842     1.0  0.94441  0.48162  0.77637  1.0000
  H   H1843     1.0  0.95543  0.44702  0.78728  1.0000
  C   C1034     1.0  0.88358  0.25316  0.76258  1.0000
  H   H1844     1.0  0.98080  0.38081  0.99334  1.0000
  H   H1845     1.0  0.66289  0.03685  0.92393  1.0000
  S   S215      1.0  0.62890  0.01829  0.82940  1.0000
  H   H1846     1.0  0.52470  0.02753  0.83420  1.0000
  H   H1847     1.0  0.00264  0.25602  0.84249  1.0000
  S   S216      1.0  0.00176  0.20296  0.97513  1.0000
  H   H1848     1.0  0.51537  0.08110  0.75839  1.0000
  H   H1849     1.0  0.95543  0.33073  0.98308  1.0000
  H   H1850     1.0  0.93608  0.25633  0.99144  1.0000
  H   H1851     1.0  0.51791  0.49980  0.76475  1.0000
  H   H1852     1.0  0.53780  0.47954  0.94724  1.0000
  H   H1853     1.0  0.00302  0.08240  0.97217  1.0000
  C   C1035     1.0  0.69253  0.07130  0.76040  1.0000
  C   C1036     1.0  0.99346  0.48906  0.82980  1.0000
  C   C1037     1.0  0.53128  0.04320  0.76509  1.0000
  H   H1854     1.0  0.72319  0.00988  0.89371  1.0000
  H   H1855     1.0  0.98217  0.09430  0.00095  1.0000
  H   H1856     1.0  0.00283  0.24146  0.81611  1.0000
  H   H1857     1.0  0.96427  0.42880  0.75749  1.0000
  H   H1858     1.0  0.67648  0.55266  0.19597  1.0000
  Fe  Fe106     1.0  0.96549  0.59808  0.21090  1.0000
  S   S217      1.0  0.95704  0.57510  0.17841  1.0000
  S   S218      1.0  0.93793  0.61077  0.22587  1.0000
  Fe  Fe107     1.0  0.98006  0.55699  0.19272  1.0000
  C   C1038     1.0  0.96749  0.62985  0.10957  1.0000
  H   H1859     1.0  0.90836  0.62859  0.16321  1.0000
  H   H1860     1.0  0.81093  0.67264  0.04180  1.0000
  S   S219      1.0  0.98588  0.57765  0.22600  1.0000
  C   C1039     1.0  0.59201  0.57446  0.11372  1.0000
  Fe  Fe108     1.0  0.61562  0.62530  0.20974  1.0000
  S   S220      1.0  0.59763  0.61292  0.17553  1.0000
  S   S221      1.0  0.62682  0.66493  0.22925  1.0000
  Fe  Fe109     1.0  0.62729  0.57882  0.21098  1.0000
  S   S222      1.0  0.60947  0.56298  0.17727  1.0000
  S   S223      1.0  0.64349  0.55546  0.22860  1.0000
  Fe  Fe110     1.0  0.63185  0.60766  0.16750  1.0000
  S   S224      1.0  0.65691  0.61541  0.13687  1.0000
  Fe  Fe111     1.0  0.57681  0.56904  0.18785  1.0000
  S   S225      1.0  0.53315  0.53912  0.17810  1.0000
  S   S226      1.0  0.65117  0.62271  0.20086  1.0000
  S   S227      1.0  0.59298  0.58205  0.22243  1.0000
  Fe  Fe112     1.0  0.62691  0.97577  0.16555  1.0000
  S   S228      1.0  0.63472  0.97438  0.20190  1.0000
  C   C1040     1.0  0.54458  0.55467  0.11621  1.0000
  Fe  Fe113     1.0  0.57778  0.98005  0.17460  1.0000
  S   S229      1.0  0.58259  0.97858  0.21069  1.0000
  H   H1861     1.0  0.54451  0.85852  0.25067  1.0000
  C   C1041     1.0  0.66252  0.54931  0.16241  1.0000
  Fe  Fe114     1.0  0.59107  0.94501  0.20385  1.0000
  S   S230      1.0  0.56969  0.90692  0.22482  1.0000
  S   S231      1.0  0.58320  0.94397  0.16749  1.0000
  Fe  Fe115     1.0  0.97752  0.70088  0.02959  1.0000
  C   C1042     1.0  0.00125  0.67439  0.08346  1.0000
  C   C1043     1.0  0.72638  0.59858  0.11638  1.0000
  Fe  Fe116     1.0  0.72880  0.71445  0.02876  1.0000
  S   S232      1.0  0.77226  0.74778  0.02981  1.0000
  S   S233      1.0  0.70497  0.70408  0.06054  1.0000
  Fe  Fe117     1.0  0.71940  0.97556  0.02099  1.0000
  S   S234      1.0  0.75381  0.97090  0.02989  1.0000
  S   S235      1.0  0.69117  0.98121  0.04327  1.0000
  C   C1044     1.0  0.70111  0.99846  0.23554  1.0000
  H   H1862     1.0  0.66859  0.54733  0.14574  1.0000
  S   S236      1.0  0.65528  0.96989  0.14354  1.0000
  H   H1863     1.0  0.52132  0.57514  0.11458  1.0000
  H   H1864     1.0  0.57451  0.52968  0.11754  1.0000
  C   C1045     1.0  0.61934  0.70200  0.25288  1.0000
  H   H1865     1.0  0.59436  0.57740  0.13187  1.0000
  C   C1046     1.0  0.59004  0.54665  0.10790  1.0000
  C   C1047     1.0  0.66440  0.97261  0.11540  1.0000
  C   C1048     1.0  0.89661  0.74093  0.00713  1.0000
  H   H1866     1.0  0.71717  0.54269  0.20185  1.0000
  C   C1049     1.0  0.68096  0.97698  0.07115  1.0000
  C   C1050     1.0  0.66252  0.98424  0.07738  1.0000
  C   C1051     1.0  0.65425  0.98204  0.09926  1.0000
  H   H1867     1.0  0.70517  0.96170  0.08288  1.0000
  H   H1868     1.0  0.62175  0.51724  0.15474  1.0000
  H   H1869     1.0  0.65733  0.56543  0.16266  1.0000
  C   C1052     1.0  0.67046  0.64059  0.11601  1.0000
  C   C1053     1.0  0.68203  0.63573  0.09786  1.0000
  C   C1054     1.0  0.69289  0.65487  0.08085  1.0000
  C   C1055     1.0  0.69219  0.67919  0.08166  1.0000
  C   C1056     1.0  0.68068  0.68406  0.09987  1.0000
  C   C1057     1.0  0.67010  0.66508  0.11698  1.0000
  H   H1870     1.0  0.68250  0.61693  0.09686  1.0000
  H   H1871     1.0  0.70161  0.65071  0.06703  1.0000
  H   H1872     1.0  0.68005  0.70278  0.10079  1.0000
  H   H1873     1.0  0.66175  0.66945  0.13094  1.0000
  C   C1058     1.0  0.95729  0.63779  0.09204  1.0000
  C   C1059     1.0  0.61006  0.90145  0.24253  1.0000
  C   C1060     1.0  0.56556  0.86679  0.25189  1.0000
  C   C1061     1.0  0.97404  0.66007  0.07882  1.0000
  H   H1874     1.0  0.94262  0.74744  0.05676  1.0000
  C   C1062     1.0  0.58352  0.58399  0.04317  1.0000
  C   C1063     1.0  0.67453  0.56952  0.24245  1.0000
  H   H1875     1.0  0.65450  0.99165  0.06517  1.0000
  S   S237      1.0  0.96496  0.51102  0.18518  1.0000
  H   H1876     1.0  0.92716  0.58938  0.15032  1.0000
  H   H1877     1.0  0.67775  0.95631  0.18543  1.0000
  C   C1064     1.0  0.68479  0.55582  0.17930  1.0000
  H   H1878     1.0  0.56164  0.61058  0.10292  1.0000
  H   H1879     1.0  0.91441  0.59077  0.17685  1.0000
  H   H1880     1.0  0.89797  0.77177  0.02918  1.0000
  H   H1881     1.0  0.68909  0.53917  0.17646  1.0000
  H   H1882     1.0  0.68310  0.92834  0.19040  1.0000
  H   H1883     1.0  0.71040  0.65579  0.16923  1.0000
  H   H1884     1.0  0.54759  0.55585  0.13434  1.0000
  H   H1885     1.0  0.61100  0.59110  0.10738  1.0000
  H   H1886     1.0  0.81513  0.66373  0.01426  1.0000
  H   H1887     1.0  0.61386  0.52783  0.10945  1.0000
  H   H1888     1.0  0.70731  0.65615  0.19869  1.0000
  C   C1065     1.0  0.90767  0.59004  0.23941  1.0000
  C   C1066     1.0  0.89351  0.60224  0.24656  1.0000
  C   C1067     1.0  0.69277  0.59800  0.24406  1.0000
  C   C1068     1.0  0.57331  0.60479  0.11353  1.0000
  H   H1889     1.0  0.56552  0.60324  0.13031  1.0000
  H   H1890     1.0  0.76078  0.55214  0.21351  1.0000
  C   C1069     1.0  0.98071  0.72075  0.11355  1.0000
  C   C1070     1.0  0.80974  0.65597  0.03108  1.0000
  C   C1071     1.0  0.58293  0.89103  0.24090  1.0000
  C   C1072     1.0  0.58934  0.59250  0.06742  1.0000
  H   H1891     1.0  0.69093  0.60070  0.19811  1.0000
  C   C1073     1.0  0.69109  0.96750  0.08728  1.0000
  H   H1892     1.0  0.89635  0.64526  0.03120  1.0000
  H   H1893     1.0  0.60699  0.59170  0.07224  1.0000
  H   H1894     1.0  0.68798  0.77170  0.02498  1.0000
  C   C1074     1.0  0.60693  0.67564  0.24247  1.0000
  H   H1895     1.0  0.72109  0.60866  0.10357  1.0000
  C   C1075     1.0  0.51330  0.97591  0.16889  1.0000
  C   C1076     1.0  0.68296  0.96548  0.10919  1.0000
  C   C1077     1.0  0.60260  0.65686  0.11972  1.0000
  H   H1896     1.0  0.71974  0.58556  0.21295  1.0000
  H   H1897     1.0  0.56392  0.78863  0.20876  1.0000
  H   H1898     1.0  0.92268  0.64715  0.19898  1.0000
  C   C1078     1.0  0.57943  0.65864  0.24319  1.0000
  H   H1899     1.0  0.60848  0.96690  0.24943  1.0000
  H   H1900     1.0  0.61287  0.62737  0.12907  1.0000
  S   S238      1.0  0.54621  0.98804  0.16051  1.0000
  C   C1079     1.0  0.88270  0.62589  0.09818  1.0000
  H   H1901     1.0  0.66308  0.75968  0.04533  1.0000
  H   H1902     1.0  0.62337  0.67444  0.12118  1.0000
  H   H1903     1.0  0.63014  0.52245  0.18354  1.0000
  H   H1904     1.0  0.71803  0.57660  0.11124  1.0000
  H   H1905     1.0  0.86459  0.60549  0.09433  1.0000
  H   H1906     1.0  0.59261  0.66090  0.10610  1.0000
  C   C1080     1.0  0.87336  0.54647  0.25408  1.0000
  H   H1907     1.0  0.64007  0.98773  0.10364  1.0000
  H   H1908     1.0  0.54196  0.87963  0.17598  1.0000
  H   H1909     1.0  0.69347  0.59035  0.13584  1.0000
  H   H1910     1.0  0.70851  0.71378  0.23526  1.0000
  S   S239      1.0  0.93091  0.75274  0.01201  1.0000
  H   H1911     1.0  0.57979  0.80264  0.23513  1.0000
  H   H1912     1.0  0.68632  0.79630  0.04322  1.0000
  H   H1913     1.0  0.61324  0.63244  0.10029  1.0000
  H   H1914     1.0  0.93883  0.74794  0.08582  1.0000
  H   H1915     1.0  0.92313  0.62787  0.13794  1.0000
  H   H1916     1.0  0.59812  0.79884  0.21358  1.0000
  C   C1081     1.0  0.97548  0.71472  0.13783  1.0000
  C   C1082     1.0  0.70324  0.60597  0.18334  1.0000
  H   H1917     1.0  0.74063  0.55944  0.18044  1.0000
  H   H1918     1.0  0.72290  0.62276  0.14184  1.0000
  H   H1919     1.0  0.51601  0.84395  0.17167  1.0000
  H   H1920     1.0  0.89821  0.62219  0.10439  1.0000
  H   H1921     1.0  0.99120  0.52751  0.14171  1.0000
  H   H1922     1.0  0.82683  0.63091  0.02783  1.0000
  N   N57       1.0  0.87744  0.66430  0.04762  1.0000
  C   C1083     1.0  0.87080  0.64845  0.06846  1.0000
  C   C1084     1.0  0.85677  0.67155  0.04304  1.0000
  H   H1923     1.0  0.64862  0.97384  0.24745  1.0000
  C   C1085     1.0  0.90411  0.69073  0.04958  1.0000
  C   C1086     1.0  0.90784  0.71082  0.06885  1.0000
  C   C1087     1.0  0.89224  0.64321  0.07771  1.0000
  H   H1924     1.0  0.71980  0.56755  0.15062  1.0000
  H   H1925     1.0  0.53395  0.85521  0.19751  1.0000
  H   H1926     1.0  0.86151  0.62467  0.03025  1.0000
  H   H1927     1.0  0.75149  0.57211  0.23010  1.0000
  H   H1928     1.0  0.71434  0.68560  0.23617  1.0000
  S   S240      1.0  0.95973  0.66917  0.05709  1.0000
  H   H1929     1.0  0.85249  0.62776  0.06588  1.0000
  H   H1930     1.0  0.86589  0.65883  0.08152  1.0000
  H   H1931     1.0  0.85607  0.68421  0.05682  1.0000
  H   H1932     1.0  0.54028  0.53383  0.11089  1.0000
  H   H1933     1.0  0.58554  0.54113  0.09024  1.0000
  H   H1934     1.0  0.68787  0.61212  0.23694  1.0000
  H   H1935     1.0  0.92023  0.68621  0.05063  1.0000
  H   H1936     1.0  0.90814  0.70267  0.03445  1.0000
  H   H1937     1.0  0.90232  0.70025  0.08464  1.0000
  H   H1938     1.0  0.89568  0.72016  0.06585  1.0000
  H   H1939     1.0  0.89708  0.63192  0.06548  1.0000
  H   H1940     1.0  0.91070  0.66292  0.08235  1.0000
  C   C1088     1.0  0.91423  0.59484  0.15915  1.0000
  C   C1089     1.0  0.73461  0.56249  0.19684  1.0000
  H   H1941     1.0  0.50931  0.00430  0.14862  1.0000
  H   H1942     1.0  0.86216  0.68516  0.02874  1.0000
  C   C1090     1.0  0.72306  0.58772  0.15686  1.0000
  C   C1091     1.0  0.60209  0.62996  0.11525  1.0000
  H   H1943     1.0  0.59271  0.65579  0.13529  1.0000
  C   C1092     1.0  0.68389  0.77552  0.04189  1.0000
  H   H1944     1.0  0.60094  0.59832  0.03353  1.0000
  H   H1945     1.0  0.95438  0.61225  0.11912  1.0000
  C   C1093     1.0  0.87826  0.64645  0.02935  1.0000
  H   H1946     1.0  0.59402  0.61413  0.06891  1.0000
  C   C1094     1.0  0.56516  0.57352  0.08133  1.0000
  C   C1095     1.0  0.82807  0.64663  0.03965  1.0000
  C   C1096     1.0  0.71510  0.60052  0.13818  1.0000
  H   H1947     1.0  0.93633  0.62614  0.08834  1.0000
  H   H1948     1.0  0.66449  0.93600  0.20946  1.0000
  C   C1097     1.0  0.72758  0.63568  0.18730  1.0000
  C   C1098     1.0  0.72038  0.65780  0.18528  1.0000
  H   H1949     1.0  0.74738  0.60561  0.19639  1.0000
  H   H1950     1.0  0.74491  0.60135  0.15900  1.0000
  H   H1951     1.0  0.73597  0.63774  0.20410  1.0000
  H   H1952     1.0  0.74330  0.64020  0.17555  1.0000
  H   H1953     1.0  0.74826  0.60928  0.11768  1.0000
  C   C1099     1.0  0.58286  0.80400  0.21719  1.0000
  H   H1954     1.0  0.73185  0.63017  0.25531  1.0000
  H   H1955     1.0  0.90811  0.55236  0.23786  1.0000
  H   H1956     1.0  0.85058  0.75657  0.02369  1.0000
  N   N58       1.0  0.75041  0.80057  0.07371  1.0000
  C   C1100     1.0  0.73179  0.79563  0.05470  1.0000
  C   C1101     1.0  0.77849  0.81905  0.06652  1.0000
  C   C1102     1.0  0.74683  0.77290  0.07910  1.0000
  C   C1103     1.0  0.74508  0.81257  0.09387  1.0000
  C   C1104     1.0  0.73421  0.83197  0.09016  1.0000
  C   C1105     1.0  0.70235  0.77320  0.05816  1.0000
  C   C1106     1.0  0.76626  0.77328  0.09656  1.0000
  C   C1107     1.0  0.78691  0.84896  0.06065  1.0000
  C   C1108     1.0  0.81488  0.86454  0.05186  1.0000
  C   C1109     1.0  0.73479  0.84681  0.11146  1.0000
  N   N59       1.0  0.56928  0.57722  0.10586  1.0000
  C   C1110     1.0  0.75719  0.74404  0.10387  1.0000
  H   H1957     1.0  0.73795  0.78903  0.03979  1.0000
  H   H1958     1.0  0.73292  0.81502  0.05010  1.0000
  H   H1959     1.0  0.79279  0.82164  0.07964  1.0000
  H   H1960     1.0  0.78231  0.80924  0.05220  1.0000
  H   H1961     1.0  0.74835  0.76252  0.06405  1.0000
  H   H1962     1.0  0.72661  0.75873  0.08515  1.0000
  H   H1963     1.0  0.73042  0.79578  0.10429  1.0000
  H   H1964     1.0  0.76336  0.82400  0.10438  1.0000
  H   H1965     1.0  0.71338  0.81989  0.08407  1.0000
  H   H1966     1.0  0.74543  0.84790  0.07800  1.0000
  H   H1967     1.0  0.69941  0.75231  0.05565  1.0000
  H   H1968     1.0  0.69619  0.77443  0.07496  1.0000
  H   H1969     1.0  0.76795  0.78596  0.11123  1.0000
  H   H1970     1.0  0.78615  0.78172  0.08965  1.0000
  H   H1971     1.0  0.77356  0.84936  0.04805  1.0000
  H   H1972     1.0  0.78722  0.86065  0.07551  1.0000
  H   H1973     1.0  0.82940  0.86624  0.06442  1.0000
  H   H1974     1.0  0.81618  0.85385  0.03697  1.0000
  H   H1975     1.0  0.82018  0.88571  0.04740  1.0000
  H   H1976     1.0  0.75544  0.86039  0.11777  1.0000
  H   H1977     1.0  0.72628  0.85991  0.10843  1.0000
  H   H1978     1.0  0.72294  0.83161  0.12403  1.0000
  H   H1979     1.0  0.87857  0.63688  0.11124  1.0000
  C   C1111     1.0  0.63749  0.52169  0.16707  1.0000
  H   H1980     1.0  0.68351  0.68005  0.22484  1.0000
  H   H1981     1.0  0.73753  0.73448  0.11147  1.0000
  H   H1982     1.0  0.75587  0.73081  0.08967  1.0000
  H   H1983     1.0  0.77158  0.74480  0.11610  1.0000
  N   N60       1.0  0.60448  0.86417  0.17603  1.0000
  C   C1112     1.0  0.59700  0.83646  0.18518  1.0000
  C   C1113     1.0  0.60989  0.86486  0.15185  1.0000
  C   C1114     1.0  0.62978  0.88580  0.18773  1.0000
  C   C1115     1.0  0.58374  0.87138  0.18016  1.0000
  C   C1116     1.0  0.55561  0.85089  0.17078  1.0000
  C   C1117     1.0  0.59182  0.83327  0.21011  1.0000
  C   C1118     1.0  0.64324  0.91555  0.17889  1.0000
  C   C1119     1.0  0.59306  0.83760  0.13811  1.0000
  C   C1120     1.0  0.59709  0.84280  0.11363  1.0000
  C   C1121     1.0  0.53574  0.85793  0.17953  1.0000
  C   C1122     1.0  0.66871  0.93516  0.19192  1.0000
  H   H1984     1.0  0.61288  0.83202  0.18188  1.0000
  H   H1985     1.0  0.57904  0.81932  0.17682  1.0000
  H   H1986     1.0  0.60806  0.88144  0.14401  1.0000
  H   H1987     1.0  0.63073  0.87063  0.14937  1.0000
  H   H1988     1.0  0.64463  0.87939  0.18741  1.0000
  H   H1989     1.0  0.62627  0.88776  0.20526  1.0000
  H   H1990     1.0  0.58242  0.87438  0.19794  1.0000
  H   H1991     1.0  0.58952  0.89166  0.17314  1.0000
  H   H1992     1.0  0.54849  0.82929  0.17517  1.0000
  H   H1993     1.0  0.55536  0.85237  0.15272  1.0000
  H   H1994     1.0  0.61005  0.84748  0.21985  1.0000
  H   H1995     1.0  0.57613  0.83740  0.21458  1.0000
  H   H1996     1.0  0.63016  0.92398  0.18026  1.0000
  H   H1997     1.0  0.64852  0.91612  0.16149  1.0000
  H   H1998     1.0  0.59918  0.82270  0.14231  1.0000
  H   H1999     1.0  0.57170  0.82754  0.14106  1.0000
  H   H2000     1.0  0.61827  0.85225  0.10973  1.0000
  H   H2001     1.0  0.58548  0.82291  0.10419  1.0000
  H   H2002     1.0  0.59028  0.85680  0.10841  1.0000
  C   C1123     1.0  0.00146  0.51823  0.13347  1.0000
  H   H2003     1.0  0.73859  0.67865  0.18663  1.0000
  H   H2004     1.0  0.69060  0.60668  0.17018  1.0000
  Fe  Fe118     1.0  0.99597  0.61103  0.16798  1.0000
  N   N61       1.0  0.70973  0.58397  0.17851  1.0000
  H   H2005     1.0  0.54939  0.57735  0.07598  1.0000
  C   C1124     1.0  0.72810  0.58569  0.19675  1.0000
  C   C1125     1.0  0.85859  0.74591  0.01500  1.0000
  C   C1126     1.0  0.75696  0.56934  0.21335  1.0000
  H   H2006     1.0  0.62135  0.55328  0.13088  1.0000
  H   H2007     1.0  0.77545  0.58855  0.20896  1.0000
  H   H2008     1.0  0.82036  0.63649  0.05546  1.0000
  S   S241      1.0  0.98773  0.74463  0.03588  1.0000
  C   C1127     1.0  0.61599  0.54813  0.11325  1.0000
  C   C1128     1.0  0.99471  0.64416  0.11421  1.0000
  H   H2009     1.0  0.94982  0.72644  0.07393  1.0000
  H   H2010     1.0  0.89376  0.58135  0.15247  1.0000
  H   H2011     1.0  0.78900  0.63825  0.03043  1.0000
  H   H2012     1.0  0.69106  0.95822  0.12144  1.0000
  C   C1129     1.0  0.93655  0.73454  0.07145  1.0000
  C   C1130     1.0  0.88555  0.75446  0.01813  1.0000
  H   H2013     1.0  0.62361  0.92004  0.23412  1.0000
  C   C1131     1.0  0.69910  0.69124  0.23778  1.0000
  C   C1132     1.0  0.51882  0.55462  0.11115  1.0000
  H   H2014     1.0  0.77037  0.98787  0.07807  1.0000
  C   C1133     1.0  0.92333  0.62509  0.15581  1.0000
  H   H2015     1.0  0.99437  0.72810  0.14703  1.0000
  H   H2016     1.0  0.95205  0.63864  0.18299  1.0000
  Fe  Fe119     1.0  0.96014  0.73757  0.00717  1.0000
  H   H2017     1.0  0.56628  0.58496  0.03715  1.0000
  C   C1134     1.0  0.89747  0.56204  0.24326  1.0000
  H   H2018     1.0  0.99657  0.71724  0.10820  1.0000
  H   H2019     1.0  0.57948  0.56267  0.04044  1.0000
  H   H2020     1.0  0.56958  0.63833  0.23529  1.0000
  H   H2021     1.0  0.55755  0.55163  0.07621  1.0000
  H   H2022     1.0  0.68672  0.98611  0.22209  1.0000
  Fe  Fe120     1.0  0.77772  0.00503  0.00605  1.0000
  H   H2023     1.0  0.63222  0.56412  0.10342  1.0000
  C   C1135     1.0  0.71768  0.60813  0.25441  1.0000
  H   H2024     1.0  0.65636  0.64281  0.25219  1.0000
  H   H2025     1.0  0.51042  0.94484  0.19031  1.0000
  C   C1136     1.0  0.96406  0.68362  0.14182  1.0000
  H   H2026     1.0  0.53090  0.99476  0.21748  1.0000
  H   H2027     1.0  0.99850  0.51844  0.11552  1.0000
  H   H2028     1.0  0.71835  0.99587  0.23428  1.0000
  C   C1137     1.0  0.56459  0.66798  0.25414  1.0000
  H   H2029     1.0  0.98519  0.68239  0.19449  1.0000
  S   S242      1.0  0.00361  0.63500  0.19981  1.0000
  H   H2030     1.0  0.00053  0.51422  0.22059  1.0000
  C   C1138     1.0  0.68129  0.55137  0.25156  1.0000
  H   H2031     1.0  0.51281  0.00690  0.24909  1.0000
  H   H2032     1.0  0.90118  0.62384  0.24358  1.0000
  H   H2033     1.0  0.66728  0.52930  0.25045  1.0000
  H   H2034     1.0  0.64059  0.71533  0.25246  1.0000
  H   H2035     1.0  0.89565  0.66896  0.19759  1.0000
  C   C1139     1.0  0.95144  0.64493  0.16595  1.0000
  H   H2036     1.0  0.96508  0.64049  0.15702  1.0000
  H   H2037     1.0  0.51264  0.54872  0.09370  1.0000
  C   C1140     1.0  0.91374  0.67783  0.20823  1.0000
  H   H2038     1.0  0.92366  0.67366  0.16515  1.0000
  H   H2039     1.0  0.94464  0.67243  0.13289  1.0000
  H   H2040     1.0  0.90785  0.66939  0.22483  1.0000
  H   H2041     1.0  0.99229  0.71311  0.18156  1.0000
  C   C1141     1.0  0.93290  0.67004  0.19910  1.0000
  C   C1142     1.0  0.94165  0.68145  0.17582  1.0000
  H   H2042     1.0  0.92323  0.70067  0.20952  1.0000
  N   N62       1.0  0.96105  0.67538  0.16540  1.0000
  H   H2043     1.0  0.98717  0.74265  0.11063  1.0000
  H   H2044     1.0  0.95014  0.67851  0.21065  1.0000
  H   H2045     1.0  0.97637  0.67709  0.13318  1.0000
  H   H2046     1.0  0.95022  0.70419  0.17725  1.0000
  H   H2047     1.0  0.96257  0.70715  0.10341  1.0000
  H   H2048     1.0  0.96120  0.72072  0.14286  1.0000
  C   C1143     1.0  0.98699  0.69144  0.17811  1.0000
  H   H2049     1.0  0.63641  0.59652  0.25532  1.0000
  H   H2050     1.0  0.54333  0.65472  0.25449  1.0000
  C   C1144     1.0  0.61967  0.88774  0.25509  1.0000
  Fe  Fe121     1.0  0.60037  0.77906  0.34028  1.0000
  S   S243      1.0  0.56049  0.73990  0.33495  1.0000
  S   S244      1.0  0.63213  0.78302  0.36435  1.0000
  Fe  Fe122     1.0  0.59228  0.80703  0.30065  1.0000
  S   S245      1.0  0.55212  0.76991  0.29248  1.0000
  S   S246      1.0  0.61539  0.84686  0.28144  1.0000
  Fe  Fe123     1.0  0.54530  0.76826  0.32882  1.0000
  Fe  Fe124     1.0  0.57021  0.74411  0.29911  1.0000
  S   S247      1.0  0.55717  0.70501  0.27795  1.0000
  S   S248      1.0  0.58468  0.80739  0.33665  1.0000
  S   S249      1.0  0.61087  0.78126  0.30473  1.0000
  Fe  Fe125     1.0  0.80527  0.58511  0.33406  1.0000
  S   S250      1.0  0.76226  0.57053  0.32982  1.0000
  S   S251      1.0  0.83439  0.61116  0.36171  1.0000
  Fe  Fe126     1.0  0.80526  0.55321  0.29291  1.0000
  S   S252      1.0  0.82880  0.53798  0.27462  1.0000
  Fe  Fe127     1.0  0.77043  0.57864  0.29404  1.0000
  S   S253      1.0  0.75668  0.60345  0.27496  1.0000
  S   S254      1.0  0.81439  0.59655  0.29881  1.0000
  S   S255      1.0  0.79914  0.54283  0.32849  1.0000
  H   H2051     1.0  0.78631  0.57653  0.41696  1.0000
  S   S256      1.0  0.78085  0.92166  0.48361  1.0000
  H   H2052     1.0  0.77235  0.97239  0.42168  1.0000
  C   C1145     1.0  0.73952  0.52731  0.39834  1.0000
  H   H2053     1.0  0.78725  0.59201  0.46196  1.0000
  H   H2054     1.0  0.71501  0.99087  0.45707  1.0000
  Fe  Fe128     1.0  0.69218  0.83338  0.48599  1.0000
  S   S257      1.0  0.65672  0.82463  0.46445  1.0000
  S   S258      1.0  0.73181  0.84359  0.47438  1.0000
  Fe  Fe129     1.0  0.83290  0.68242  0.47503  1.0000
  S   S259      1.0  0.85756  0.72893  0.47528  1.0000
  S   S260      1.0  0.80529  0.65588  0.44665  1.0000
  H   H2055     1.0  0.50975  0.68661  0.30411  1.0000
  H   H2056     1.0  0.72492  0.96936  0.44312  1.0000
  H   H2057     1.0  0.85954  0.81445  0.49560  1.0000
  C   C1146     1.0  0.92603  0.81066  0.44544  1.0000
  H   H2058     1.0  0.76721  0.86455  0.43009  1.0000
  H   H2059     1.0  0.82631  0.78292  0.46712  1.0000
  C   C1147     1.0  0.68715  0.68434  0.26047  1.0000
  C   C1148     1.0  0.77395  0.55695  0.42575  1.0000
  H   H2060     1.0  0.94770  0.80547  0.41935  1.0000
  C   C1149     1.0  0.78455  0.53786  0.39314  1.0000
  H   H2061     1.0  0.96259  0.81011  0.44623  1.0000
  H   H2062     1.0  0.80065  0.96895  0.42505  1.0000
  H   H2063     1.0  0.72272  0.51901  0.40975  1.0000
  C   C1150     1.0  0.72453  0.58991  0.26333  1.0000
  C   C1151     1.0  0.52985  0.66326  0.33059  1.0000
  C   C1152     1.0  0.60452  0.71127  0.26394  1.0000
  H   H2064     1.0  0.82264  0.56127  0.41071  1.0000
  H   H2065     1.0  0.94601  0.69266  0.37695  1.0000
  H   H2066     1.0  0.56151  0.83435  0.27271  1.0000
  H   H2067     1.0  0.94607  0.85358  0.48224  1.0000
  C   C1153     1.0  0.93199  0.67280  0.38464  1.0000
  H   H2068     1.0  0.75053  0.74149  0.48485  1.0000
  H   H2069     1.0  0.88919  0.65108  0.26992  1.0000
  N   N63       1.0  0.65103  0.98493  0.28172  1.0000
  H   H2070     1.0  0.93643  0.83329  0.44311  1.0000
  C   C1154     1.0  0.81235  0.97850  0.48232  1.0000
  C   C1155     1.0  0.82621  0.62414  0.38493  1.0000
  C   C1156     1.0  0.84517  0.63785  0.40196  1.0000
  C   C1157     1.0  0.83932  0.64822  0.42077  1.0000
  C   C1158     1.0  0.81428  0.64465  0.42284  1.0000
  C   C1159     1.0  0.79536  0.63097  0.40579  1.0000
  C   C1160     1.0  0.80135  0.62097  0.38685  1.0000
  H   H2071     1.0  0.86449  0.64048  0.40061  1.0000
  H   H2072     1.0  0.85405  0.65870  0.43377  1.0000
  H   H2073     1.0  0.77602  0.62829  0.40718  1.0000
  H   H2074     1.0  0.78680  0.61105  0.37368  1.0000
  H   H2075     1.0  0.84018  0.81092  0.44811  1.0000
  Fe  Fe130     1.0  0.75683  0.52886  0.32181  1.0000
  H   H2076     1.0  0.94175  0.67093  0.39958  1.0000
  C   C1161     1.0  0.90001  0.80522  0.50405  1.0000
  H   H2077     1.0  0.71761  0.56365  0.36787  1.0000
  C   C1162     1.0  0.63787  0.79377  0.39237  1.0000
  C   C1163     1.0  0.65781  0.79272  0.40423  1.0000
  C   C1164     1.0  0.66360  0.80168  0.42637  1.0000
  C   C1165     1.0  0.64961  0.81204  0.43686  1.0000
  C   C1166     1.0  0.62961  0.81301  0.42503  1.0000
  C   C1167     1.0  0.62374  0.80394  0.40290  1.0000
  H   H2078     1.0  0.66881  0.78484  0.39624  1.0000
  H   H2079     1.0  0.67885  0.80055  0.43530  1.0000
  H   H2080     1.0  0.61861  0.82090  0.43301  1.0000
  H   H2081     1.0  0.60838  0.80489  0.39398  1.0000
  H   H2082     1.0  0.91418  0.67308  0.38959  1.0000
  C   C1168     1.0  0.61702  0.91533  0.31278  1.0000
  C   C1169     1.0  0.82746  0.54162  0.38253  1.0000
  H   H2083     1.0  0.88524  0.81572  0.45196  1.0000
  H   H2084     1.0  0.60951  0.55934  0.29439  1.0000
  H   H2085     1.0  0.65194  0.84822  0.36849  1.0000
  H   H2086     1.0  0.60231  0.55012  0.26567  1.0000
  C   C1170     1.0  0.92505  0.84800  0.48187  1.0000
  H   H2087     1.0  0.60719  0.90885  0.32874  1.0000
  H   H2088     1.0  0.82536  0.97454  0.47287  1.0000
  H   H2089     1.0  0.90758  0.80032  0.43519  1.0000
  C   C1171     1.0  0.71010  0.65574  0.30117  1.0000
  H   H2090     1.0  0.66927  0.60887  0.28360  1.0000
  N   N64       1.0  0.90660  0.81693  0.48148  1.0000
  H   H2091     1.0  0.54525  0.67964  0.32046  1.0000
  H   H2092     1.0  0.88466  0.78277  0.50286  1.0000
  N   N65       1.0  0.90564  0.63006  0.32931  1.0000
  C   C1172     1.0  0.88777  0.63183  0.31249  1.0000
  C   C1173     1.0  0.89180  0.60109  0.33788  1.0000
  C   C1174     1.0  0.90941  0.64952  0.34820  1.0000
  C   C1175     1.0  0.93240  0.63817  0.32054  1.0000
  C   C1176     1.0  0.93354  0.63189  0.29581  1.0000
  C   C1177     1.0  0.89700  0.66144  0.30483  1.0000
  C   C1178     1.0  0.92429  0.64837  0.36884  1.0000
  C   C1179     1.0  0.88596  0.57756  0.32124  1.0000
  C   C1180     1.0  0.87025  0.54930  0.33160  1.0000
  C   C1181     1.0  0.96029  0.63583  0.29027  1.0000
  H   H2093     1.0  0.96074  0.63197  0.27244  1.0000
  H   H2094     1.0  0.86767  0.62333  0.31916  1.0000
  H   H2095     1.0  0.88459  0.61853  0.29787  1.0000
  H   H2096     1.0  0.90385  0.59943  0.35113  1.0000
  H   H2097     1.0  0.87279  0.59606  0.34532  1.0000
  H   H2098     1.0  0.88993  0.64570  0.35359  1.0000
  H   H2099     1.0  0.92053  0.67134  0.34292  1.0000
  H   H2100     1.0  0.94666  0.66080  0.32304  1.0000
  H   H2101     1.0  0.94117  0.62821  0.33012  1.0000
  H   H2102     1.0  0.93067  0.64610  0.28554  1.0000
  H   H2103     1.0  0.91814  0.61060  0.29060  1.0000
  H   H2104     1.0  0.89168  0.67224  0.31719  1.0000
  H   H2105     1.0  0.91871  0.67393  0.30298  1.0000
  H   H2106     1.0  0.94254  0.64874  0.36443  1.0000
  H   H2107     1.0  0.91135  0.62926  0.37788  1.0000
  H   H2108     1.0  0.87430  0.57727  0.30685  1.0000
  H   H2109     1.0  0.90471  0.57976  0.31585  1.0000
  H   H2110     1.0  0.62121  0.99023  0.29723  1.0000
  H   H2111     1.0  0.88086  0.54831  0.34633  1.0000
  H   H2112     1.0  0.85045  0.54496  0.33621  1.0000
  H   H2113     1.0  0.96361  0.62096  0.29920  1.0000
  H   H2114     1.0  0.94148  0.67267  0.50033  1.0000
  C   C1182     1.0  0.88377  0.66087  0.28304  1.0000
  C   C1183     1.0  0.64258  0.95593  0.28807  1.0000
  C   C1184     1.0  0.86386  0.81911  0.47813  1.0000
  H   H2115     1.0  0.63336  0.91118  0.31250  1.0000
  H   H2116     1.0  0.57473  0.97245  0.28456  1.0000
  H   H2117     1.0  0.72794  0.97354  0.47254  1.0000
  S   S261      1.0  0.93163  0.74852  0.48060  1.0000
  H   H2118     1.0  0.68005  0.87318  0.35336  1.0000
  H   H2119     1.0  0.80752  0.52413  0.41212  1.0000
  H   H2120     1.0  0.82507  0.81347  0.47272  1.0000
  Fe  Fe131     1.0  0.74858  0.88066  0.49760  1.0000
  H   H2121     1.0  0.64072  0.95782  0.32388  1.0000
  C   C1185     1.0  0.94351  0.80030  0.43682  1.0000
  H   H2122     1.0  0.59536  0.94585  0.27298  1.0000
  H   H2123     1.0  0.70371  0.00266  0.27037  1.0000
  C   C1186     1.0  0.74142  0.55286  0.38759  1.0000
  H   H2124     1.0  0.81784  0.60241  0.44847  1.0000
  H   H2125     1.0  0.81671  0.52191  0.37274  1.0000
  H   H2126     1.0  0.68662  0.64580  0.25928  1.0000
  H   H2127     1.0  0.70506  0.63410  0.30303  1.0000
  H   H2128     1.0  0.60227  0.90256  0.29962  1.0000
  H   H2129     1.0  0.86763  0.53311  0.31956  1.0000
  H   H2130     1.0  0.66004  0.95371  0.28997  1.0000
  H   H2131     1.0  0.81142  0.58588  0.47437  1.0000
  N   N66       1.0  0.66357  0.64368  0.28707  1.0000
  C   C1187     1.0  0.68551  0.65834  0.30419  1.0000
  C   C1188     1.0  0.64068  0.64751  0.29216  1.0000
  C   C1189     1.0  0.65360  0.61314  0.28801  1.0000
  C   C1190     1.0  0.70612  0.56147  0.26199  1.0000
  H   H2132     1.0  0.84624  0.54425  0.38899  1.0000
  H   H2133     1.0  0.85860  0.59625  0.26256  1.0000
  C   C1191     1.0  0.62978  0.59387  0.27246  1.0000
  C   C1192     1.0  0.64711  0.67498  0.30386  1.0000
  C   C1193     1.0  0.62204  0.67590  0.30692  1.0000
  C   C1194     1.0  0.80218  0.58629  0.45857  1.0000
  H   H2134     1.0  0.51451  0.70477  0.44836  1.0000
  H   H2135     1.0  0.71095  0.52926  0.36234  1.0000
  H   H2136     1.0  0.67767  0.65053  0.32069  1.0000
  H   H2137     1.0  0.69291  0.68079  0.30520  1.0000
  H   H2138     1.0  0.62901  0.64509  0.27692  1.0000
  H   H2139     1.0  0.62653  0.63097  0.30305  1.0000
  H   H2140     1.0  0.64808  0.60600  0.30506  1.0000
  C   C1195     1.0  0.92843  0.68125  0.49950  1.0000
  H   H2141     1.0  0.93337  0.77747  0.43814  1.0000
  H   H2142     1.0  0.63358  0.55802  0.27737  1.0000
  C   C1196     1.0  0.67317  0.65292  0.26430  1.0000
  H   H2143     1.0  0.56394  0.95702  0.25750  1.0000
  C   C1197     1.0  0.81954  0.00608  0.48710  1.0000
  H   H2144     1.0  0.73855  0.69561  0.31683  1.0000
  N   N67       1.0  0.76426  0.53222  0.41015  1.0000
  H   H2145     1.0  0.61364  0.59821  0.27341  1.0000
  H   H2146     1.0  0.65584  0.67686  0.32046  1.0000
  H   H2147     1.0  0.66114  0.69325  0.29457  1.0000
  H   H2148     1.0  0.61129  0.67244  0.29107  1.0000
  H   H2149     1.0  0.60867  0.65979  0.31833  1.0000
  H   H2150     1.0  0.62728  0.69646  0.31384  1.0000
  H   H2151     1.0  0.69904  0.53680  0.38703  1.0000
  H   H2152     1.0  0.87381  0.84177  0.47605  1.0000
  H   H2153     1.0  0.73335  0.51136  0.38495  1.0000
  H   H2154     1.0  0.72429  0.66679  0.33512  1.0000
  H   H2155     1.0  0.86196  0.64926  0.28443  1.0000
  C   C1198     1.0  0.85920  0.55866  0.26123  1.0000
  H   H2156     1.0  0.93118  0.90077  0.48281  1.0000
  H   H2157     1.0  0.70348  0.69666  0.27253  1.0000
  H   H2158     1.0  0.93884  0.80957  0.47824  1.0000
  H   H2159     1.0  0.73751  0.83037  0.42857  1.0000
  H   H2160     1.0  0.98369  0.76512  0.46665  1.0000
  H   H2161     1.0  0.83235  0.55915  0.37178  1.0000
  C   C1199     1.0  0.98527  0.77018  0.48397  1.0000
  C   C1200     1.0  0.57700  0.69432  0.26460  1.0000
  C   C1201     1.0  0.60340  0.96697  0.26680  1.0000
  H   H2162     1.0  0.97655  0.65728  0.29450  1.0000
  C   C1202     1.0  0.62787  0.98901  0.28055  1.0000
  C   C1203     1.0  0.78946  0.55802  0.44679  1.0000
  C   C1204     1.0  0.60225  0.86341  0.26604  1.0000
  H   H2163     1.0  0.63033  0.94088  0.27473  1.0000
  C   C1205     1.0  0.83729  0.80576  0.46568  1.0000
  H   H2164     1.0  0.89040  0.68233  0.27838  1.0000
  Fe  Fe132     1.0  0.88918  0.72477  0.49251  1.0000
  H   H2165     1.0  0.77570  0.54232  0.45831  1.0000
  S   S262      1.0  0.76189  0.53588  0.28561  1.0000
  H   H2166     1.0  0.74883  0.67079  0.31606  1.0000
  H   H2167     1.0  0.76001  0.84217  0.40634  1.0000
  C   C1206     1.0  0.78136  0.96047  0.41616  1.0000
  S   S263      1.0  0.74211  0.78508  0.49781  1.0000
  C   C1207     1.0  0.88119  0.80838  0.46899  1.0000
  H   H2168     1.0  0.51307  0.73180  0.43457  1.0000
  H   H2169     1.0  0.61020  0.94866  0.30994  1.0000
  C   C1208     1.0  0.91975  0.80366  0.46985  1.0000
  H   H2170     1.0  0.80528  0.55378  0.44337  1.0000
  H   H2171     1.0  0.71112  0.54722  0.26876  1.0000
  H   H2172     1.0  0.53534  0.64759  0.33345  1.0000
  H   H2173     1.0  0.86874  0.78537  0.46762  1.0000
  C   C1209     1.0  0.81081  0.54123  0.40153  1.0000
  C   C1210     1.0  0.61815  0.56351  0.27790  1.0000
  C   C1211     1.0  0.58115  0.97300  0.26751  1.0000
  H   H2174     1.0  0.65389  0.87928  0.35952  1.0000
  H   H2175     1.0  0.77127  0.00141  0.45707  1.0000
  C   C1212     1.0  0.62743  0.94603  0.30969  1.0000
  N   N68       1.0  0.71423  0.88917  0.41634  1.0000
  C   C1213     1.0  0.72407  0.87142  0.42530  1.0000
  C   C1214     1.0  0.69833  0.89309  0.43351  1.0000
  C   C1215     1.0  0.69563  0.87331  0.39715  1.0000
  C   C1216     1.0  0.73630  0.91679  0.40869  1.0000
  C   C1217     1.0  0.76339  0.92995  0.42128  1.0000
  C   C1218     1.0  0.73593  0.86059  0.40819  1.0000
  C   C1219     1.0  0.67987  0.88567  0.38738  1.0000
  C   C1220     1.0  0.71278  0.90734  0.45544  1.0000
  C   C1221     1.0  0.69373  0.90819  0.47155  1.0000
  H   H2176     1.0  0.90736  0.78073  0.47065  1.0000
  C   C1222     1.0  0.75111  0.84878  0.41907  1.0000
  C   C1223     1.0  0.66565  0.87066  0.36589  1.0000
  H   H2177     1.0  0.70768  0.85301  0.43315  1.0000
  H   H2178     1.0  0.73894  0.88229  0.43874  1.0000
  H   H2179     1.0  0.69068  0.90596  0.42729  1.0000
  H   H2180     1.0  0.68061  0.87270  0.43726  1.0000
  H   H2181     1.0  0.68086  0.85181  0.40183  1.0000
  H   H2182     1.0  0.70660  0.87119  0.38341  1.0000
  H   H2183     1.0  0.74062  0.91518  0.39124  1.0000
  H   H2184     1.0  0.72987  0.93206  0.40893  1.0000
  H   H2185     1.0  0.77375  0.91911  0.41653  1.0000
  H   H2186     1.0  0.76148  0.92864  0.43922  1.0000
  H   H2187     1.0  0.71981  0.84362  0.39791  1.0000
  H   H2188     1.0  0.74944  0.87726  0.39727  1.0000
  H   H2189     1.0  0.69310  0.90797  0.38417  1.0000
  H   H2190     1.0  0.66438  0.88310  0.39878  1.0000
  H   H2191     1.0  0.72149  0.89630  0.46325  1.0000
  H   H2192     1.0  0.72849  0.92908  0.45289  1.0000
  H   H2193     1.0  0.67773  0.88686  0.47536  1.0000
  H   H2194     1.0  0.70460  0.91890  0.48703  1.0000
  H   H2195     1.0  0.68478  0.91955  0.46472  1.0000
  H   H2196     1.0  0.92260  0.85657  0.46638  1.0000
  H   H2197     1.0  0.93360  0.69433  0.48490  1.0000
  H   H2198     1.0  0.77590  0.52149  0.37993  1.0000
  H   H2199     1.0  0.78494  0.96301  0.39834  1.0000
  H   H2200     1.0  0.74558  0.56937  0.39990  1.0000
  C   C1224     1.0  0.92276  0.86463  0.50131  1.0000
  S   S264      1.0  0.86545  0.67830  0.48957  1.0000
  C   C1225     1.0  0.73169  0.67337  0.31839  1.0000
  H   H2201     1.0  0.52950  0.67256  0.34663  1.0000
  C   C1226     1.0  0.57512  0.85301  0.26437  1.0000
  H   H2202     1.0  0.75727  0.56161  0.37556  1.0000
  H   H2203     1.0  0.75695  0.55809  0.43196  1.0000
  H   H2204     1.0  0.71872  0.66279  0.28487  1.0000
  C   C1227     1.0  0.96243  0.76397  0.49531  1.0000
  C   C1228     1.0  0.67069  0.00501  0.29874  1.0000
  C   C1229     1.0  0.71561  0.54505  0.37551  1.0000
  C   C1230     1.0  0.78880  0.95601  0.49009  1.0000
  H   H2205     1.0  0.61436  0.73157  0.27187  1.0000
  C   C1231     1.0  0.86943  0.58669  0.25741  1.0000
  H   H2206     1.0  0.79030  0.55732  0.38463  1.0000
  H   H2207     1.0  0.67269  0.69109  0.26125  1.0000
  C   C1232     1.0  0.72960  0.98421  0.45703  1.0000
  C   C1233     1.0  0.93888  0.89571  0.49751  1.0000
  H   H2208     1.0  0.66072  0.00303  0.31447  1.0000
  H   H2209     1.0  0.90214  0.85877  0.50411  1.0000
  C   C1234     1.0  0.66294  0.98983  0.25941  1.0000
  H   H2210     1.0  0.68413  0.96756  0.25985  1.0000
  S   S265      1.0  0.50715  0.76457  0.34074  1.0000
  H   H2211     1.0  0.77344  0.50903  0.43288  1.0000
  H   H2212     1.0  0.58774  0.99361  0.26072  1.0000
  C   C1235     1.0  0.77216  0.96147  0.50225  1.0000
  H   H2213     1.0  0.96002  0.90279  0.49534  1.0000
  H   H2214     1.0  0.86564  0.52481  0.25688  1.0000
  H   H2215     1.0  0.78549  0.73119  0.49360  1.0000
  C   C1236     1.0  0.76718  0.75570  0.49536  1.0000
  Fe  Fe133     1.0  0.73324  0.81977  0.50297  1.0000
  H   H2216     1.0  0.68597  0.99985  0.30268  1.0000
  C   C1237     1.0  0.78699  0.74976  0.50032  1.0000
  C   C1238     1.0  0.68861  0.98901  0.25782  1.0000
  C   C1239     1.0  0.76863  0.77975  0.50385  1.0000
  H   H2217     1.0  0.90755  0.66401  0.49753  1.0000
  H   H2218     1.0  0.64069  0.89591  0.25628  1.0000
  Fe  Fe134     1.0  0.60089  0.76938  0.66555  1.0000
  S   S266      1.0  0.56178  0.73247  0.67503  1.0000
  S   S267      1.0  0.61752  0.76259  0.63389  1.0000
  Fe  Fe135     1.0  0.60008  0.80528  0.70371  1.0000
  S   S268      1.0  0.56076  0.77121  0.71504  1.0000
  S   S269      1.0  0.62527  0.84774  0.72101  1.0000
  Fe  Fe136     1.0  0.57738  0.74354  0.70988  1.0000
  S   S270      1.0  0.56814  0.71154  0.73619  1.0000
  Fe  Fe137     1.0  0.54826  0.76253  0.67933  1.0000
  S   S271      1.0  0.61749  0.77813  0.70026  1.0000
  S   S272      1.0  0.58661  0.79895  0.66839  1.0000
  Fe  Fe138     1.0  0.80484  0.59527  0.66679  1.0000
  S   S273      1.0  0.76173  0.57061  0.67441  1.0000
  S   S274      1.0  0.81968  0.63351  0.64604  1.0000
  Fe  Fe139     1.0  0.81756  0.56154  0.69804  1.0000
  S   S275      1.0  0.85222  0.55587  0.70572  1.0000
  Fe  Fe140     1.0  0.77442  0.57393  0.70962  1.0000
  S   S276      1.0  0.75848  0.59176  0.73468  1.0000
  S   S277      1.0  0.80743  0.55748  0.66181  1.0000
  S   S278      1.0  0.81773  0.60109  0.70225  1.0000
  Fe  Fe141     1.0  0.71156  0.84568  0.53411  1.0000
  S   S279      1.0  0.70169  0.85105  0.56920  1.0000
  S   S280      1.0  0.75309  0.85754  0.52542  1.0000
  Fe  Fe142     1.0  0.84925  0.67992  0.52229  1.0000
  S   S281      1.0  0.87516  0.72628  0.52606  1.0000
  S   S282      1.0  0.84713  0.64736  0.54509  1.0000
  H   H2219     1.0  0.75393  0.94444  0.50825  1.0000
  H   H2220     1.0  0.93208  0.66790  0.53994  1.0000
  C   C1240     1.0  0.77256  0.60554  0.53227  1.0000
  H   H2221     1.0  0.76593  0.54285  0.62234  1.0000
  C   C1241     1.0  0.86315  0.57102  0.74998  1.0000
  H   H2222     1.0  0.74567  0.51575  0.60213  1.0000
  H   H2223     1.0  0.92285  0.65321  0.73172  1.0000
  H   H2224     1.0  0.72628  0.59319  0.60476  1.0000
  H   H2225     1.0  0.89880  0.78550  0.54509  1.0000
  H   H2226     1.0  0.92044  0.70864  0.51758  1.0000
  H   H2227     1.0  0.78567  0.51740  0.58859  1.0000
  H   H2228     1.0  0.78234  0.84854  0.59300  1.0000
  C   C1242     1.0  0.72667  0.57805  0.74577  1.0000
  Fe  Fe143     1.0  0.76524  0.53298  0.67223  1.0000
  H   H2229     1.0  0.50881  0.67845  0.61632  1.0000
  C   C1243     1.0  0.97754  0.70661  0.56292  1.0000
  H   H2230     1.0  0.74167  0.99114  0.55843  1.0000
  C   C1244     1.0  0.87022  0.56275  0.73090  1.0000
  C   C1245     1.0  0.71479  0.75752  0.59126  1.0000
  H   H2231     1.0  0.97129  0.65512  0.72983  1.0000
  H   H2232     1.0  0.69570  0.77836  0.56003  1.0000
  C   C1246     1.0  0.92646  0.66693  0.74620  1.0000
  C   C1247     1.0  0.82869  0.63782  0.61826  1.0000
  C   C1248     1.0  0.83456  0.61995  0.60722  1.0000
  C   C1249     1.0  0.84055  0.62345  0.58486  1.0000
  C   C1250     1.0  0.84064  0.64474  0.57335  1.0000
  C   C1251     1.0  0.83517  0.66287  0.58444  1.0000
  C   C1252     1.0  0.82934  0.65946  0.60683  1.0000
  H   H2233     1.0  0.83432  0.60336  0.61591  1.0000
  H   H2234     1.0  0.84488  0.60940  0.57639  1.0000
  H   H2235     1.0  0.83509  0.67927  0.57574  1.0000
  H   H2236     1.0  0.82486  0.67341  0.61529  1.0000
  H   H2237     1.0  0.67392  0.52514  0.69277  1.0000
  H   H2238     1.0  0.67318  0.74645  0.59065  1.0000
  C   C1253     1.0  0.61293  0.86738  0.73290  1.0000
  H   H2239     1.0  0.74778  0.56760  0.62393  1.0000
  C   C1254     1.0  0.71794  0.59617  0.75120  1.0000
  H   H2240     1.0  0.53488  0.68324  0.63489  1.0000
  H   H2241     1.0  0.78507  0.58080  0.54818  1.0000
  H   H2242     1.0  0.63693  0.51656  0.73154  1.0000
  C   C1255     1.0  0.55994  0.59541  0.72239  1.0000
  H   H2243     1.0  0.58991  0.83613  0.62962  1.0000
  C   C1256     1.0  0.64001  0.78780  0.61575  1.0000
  C   C1257     1.0  0.64217  0.77939  0.59446  1.0000
  C   C1258     1.0  0.66048  0.79854  0.57981  1.0000
  C   C1259     1.0  0.67721  0.82627  0.58645  1.0000
  C   C1260     1.0  0.67487  0.83468  0.60766  1.0000
  C   C1261     1.0  0.65634  0.81562  0.62220  1.0000
  H   H2244     1.0  0.62969  0.75790  0.58932  1.0000
  H   H2245     1.0  0.66186  0.79190  0.56348  1.0000
  H   H2246     1.0  0.68769  0.85606  0.61297  1.0000
  H   H2247     1.0  0.65512  0.82236  0.63857  1.0000
  H   H2248     1.0  0.52302  0.73950  0.62159  1.0000
  C   C1262     1.0  0.53130  0.73471  0.60714  1.0000
  H   H2249     1.0  0.61730  0.85316  0.61151  1.0000
  H   H2250     1.0  0.70244  0.52604  0.65111  1.0000
  C   C1263     1.0  0.55371  0.60022  0.74607  1.0000
  H   H2251     1.0  0.66413  0.00148  0.68514  1.0000
  H   H2252     1.0  0.67523  0.72277  0.56102  1.0000
  H   H2253     1.0  0.72448  0.53284  0.57037  1.0000
  C   C1264     1.0  0.91777  0.80496  0.54212  1.0000
  H   H2254     1.0  0.78989  0.62588  0.53763  1.0000
  H   H2255     1.0  0.80576  0.54429  0.60898  1.0000
  H   H2256     1.0  0.92314  0.72825  0.54984  1.0000
  H   H2257     1.0  0.93828  0.65293  0.57350  1.0000
  C   C1265     1.0  0.70413  0.76638  0.55335  1.0000
  H   H2258     1.0  0.72874  0.82098  0.56817  1.0000
  H   H2259     1.0  0.66917  0.51965  0.65171  1.0000
  H   H2260     1.0  0.71557  0.52372  0.61275  1.0000
  H   H2261     1.0  0.77710  0.77189  0.56591  1.0000
  C   C1266     1.0  0.68749  0.75537  0.62387  1.0000
  C   C1267     1.0  0.50774  0.60319  0.73307  1.0000
  H   H2262     1.0  0.76386  0.86404  0.58447  1.0000
  H   H2263     1.0  0.77870  0.85313  0.56432  1.0000
  H   H2264     1.0  0.90156  0.66612  0.53870  1.0000
  H   H2265     1.0  0.64088  0.71464  0.53395  1.0000
  H   H2266     1.0  0.51401  0.71942  0.59671  1.0000
  C   C1268     1.0  0.91882  0.64917  0.57831  1.0000
  H   H2267     1.0  0.96485  0.73499  0.55476  1.0000
  H   H2268     1.0  0.71840  0.72783  0.55836  1.0000
  H   H2269     1.0  0.96843  0.69359  0.74091  1.0000
  H   H2270     1.0  0.73587  0.81518  0.59580  1.0000
  H   H2271     1.0  0.77816  0.59532  0.61605  1.0000
  C   C1269     1.0  0.58190  0.62213  0.71277  1.0000
  H   H2272     1.0  0.94033  0.62889  0.74000  1.0000
  H   H2273     1.0  0.66156  0.95174  0.68671  1.0000
  C   C1270     1.0  0.89203  0.55926  0.73181  1.0000
  C   C1271     1.0  0.98986  0.78373  0.52847  1.0000
  C   C1272     1.0  0.91515  0.71213  0.56240  1.0000
  S   S283      1.0  0.51190  0.75933  0.66264  1.0000
  H   H2274     1.0  0.92938  0.68693  0.59665  1.0000
  C   C1273     1.0  0.53065  0.76852  0.58358  1.0000
  H   H2275     1.0  0.67038  0.51496  0.58179  1.0000
  H   H2276     1.0  0.55718  0.78592  0.62416  1.0000
  H   H2277     1.0  0.69246  0.93442  0.68930  1.0000
  C   C1274     1.0  0.91640  0.72717  0.58433  1.0000
  H   H2278     1.0  0.57364  0.84260  0.71894  1.0000
  H   H2279     1.0  0.96268  0.72681  0.58258  1.0000
  C   C1275     1.0  0.59477  0.90004  0.75226  1.0000
  H   H2280     1.0  0.93236  0.70091  0.72592  1.0000
  H   H2281     1.0  0.90146  0.75163  0.59842  1.0000
  C   C1276     1.0  0.80845  0.76764  0.51415  1.0000
  C   C1277     1.0  0.52472  0.69333  0.62791  1.0000
  C   C1278     1.0  0.58687  0.86050  0.72920  1.0000
  H   H2282     1.0  0.91653  0.82273  0.54845  1.0000
  H   H2283     1.0  0.99326  0.63575  0.75556  1.0000
  H   H2284     1.0  0.58541  0.61804  0.69571  1.0000
  H   H2285     1.0  0.79175  0.81639  0.52417  1.0000
  N   N69       1.0  0.54863  0.76062  0.59459  1.0000
  C   C1279     1.0  0.75899  0.75196  0.56971  1.0000
  C   C1280     1.0  0.67225  0.92238  0.69582  1.0000
  H   H2286     1.0  0.51715  0.75183  0.57157  1.0000
  H   H2287     1.0  0.69673  0.55231  0.66164  1.0000
  C   C1281     1.0  0.76303  0.72891  0.56128  1.0000
  H   H2288     1.0  0.90826  0.75680  0.56971  1.0000
  H   H2289     1.0  0.89391  0.69788  0.55781  1.0000
  H   H2290     1.0  0.70250  0.54578  0.61127  1.0000
  H   H2291     1.0  0.52849  0.54625  0.73486  1.0000
  C   C1282     1.0  0.60331  0.83315  0.61901  1.0000
  H   H2292     1.0  0.50927  0.80198  0.57732  1.0000
  H   H2293     1.0  0.90827  0.71257  0.59795  1.0000
  H   H2294     1.0  0.71806  0.53637  0.74796  1.0000
  H   H2295     1.0  0.56069  0.73288  0.62813  1.0000
  N   N70       1.0  0.92937  0.69647  0.56241  1.0000
  C   C1283     1.0  0.79026  0.79782  0.51750  1.0000
  H   H2296     1.0  0.89859  0.67719  0.73304  1.0000
  C   C1284     1.0  0.76518  0.53476  0.60556  1.0000
  H   H2297     1.0  0.79188  0.57303  0.58998  1.0000
  C   C1285     1.0  0.96487  0.77083  0.51768  1.0000
  H   H2298     1.0  0.74639  0.70837  0.56594  1.0000
  C   C1286     1.0  0.97180  0.60831  0.72846  1.0000
  H   H2299     1.0  0.76468  0.62102  0.64448  1.0000
  H   H2300     1.0  0.89762  0.66935  0.58365  1.0000
  H   H2301     1.0  0.99160  0.78926  0.54570  1.0000
  C   C1287     1.0  0.74834  0.79719  0.57004  1.0000
  H   H2302     1.0  0.73756  0.62514  0.63685  1.0000
  H   H2303     1.0  0.61499  0.82702  0.62912  1.0000
  C   C1288     1.0  0.56316  0.75407  0.57769  1.0000
  H   H2304     1.0  0.55325  0.71298  0.60312  1.0000
  C   C1289     1.0  0.68864  0.52972  0.66050  1.0000
  H   H2305     1.0  0.64934  0.74489  0.55053  1.0000
  H   H2306     1.0  0.69110  0.99588  0.68096  1.0000
  H   H2307     1.0  0.59448  0.96428  0.73253  1.0000
  C   C1290     1.0  0.57114  0.77095  0.55644  1.0000
  C   C1291     1.0  0.59065  0.76665  0.54352  1.0000
  H   H2308     1.0  0.93050  0.86097  0.51668  1.0000
  H   H2309     1.0  0.89756  0.55271  0.71718  1.0000
  C   C1292     1.0  0.57793  0.87690  0.73870  1.0000
  C   C1293     1.0  0.91137  0.63330  0.59957  1.0000
  H   H2310     1.0  0.57644  0.63813  0.71257  1.0000
  H   H2311     1.0  0.58123  0.75593  0.58537  1.0000
  H   H2312     1.0  0.94763  0.76660  0.52657  1.0000
  H   H2313     1.0  0.60169  0.97630  0.70481  1.0000
  H   H2314     1.0  0.65014  0.89632  0.74908  1.0000
  C   C1294     1.0  0.74481  0.61062  0.63632  1.0000
  H   H2315     1.0  0.72824  0.99591  0.53349  1.0000
  S   S284      1.0  0.70882  0.87153  0.50790  1.0000
  H   H2316     1.0  0.60220  0.80947  0.59113  1.0000
  C   C1295     1.0  0.72541  0.54820  0.58255  1.0000
  C   C1296     1.0  0.97253  0.62411  0.74925  1.0000
  H   H2317     1.0  0.56683  0.58056  0.72246  1.0000
  H   H2318     1.0  0.68269  0.73407  0.62724  1.0000
  H   H2319     1.0  0.55331  0.76397  0.54578  1.0000
  H   H2320     1.0  0.58034  0.79341  0.55963  1.0000
  H   H2321     1.0  0.59530  0.77812  0.52806  1.0000
  H   H2322     1.0  0.73112  0.59204  0.64551  1.0000
  H   H2323     1.0  0.92620  0.64557  0.61281  1.0000
  H   H2324     1.0  0.70586  0.52896  0.69129  1.0000
  H   H2325     1.0  0.58021  0.77616  0.61901  1.0000
  C   C1297     1.0  0.65678  0.73627  0.53810  1.0000
  C   C1298     1.0  0.92324  0.68094  0.54068  1.0000
  H   H2326     1.0  0.78167  0.73187  0.56844  1.0000
  H   H2327     1.0  0.84641  0.57372  0.74956  1.0000
  C   C1299     1.0  0.51314  0.77402  0.59895  1.0000
  H   H2328     1.0  0.97849  0.59385  0.73243  1.0000
  C   C1300     1.0  0.68116  0.73664  0.54693  1.0000
  H   H2329     1.0  0.70037  0.97203  0.71591  1.0000
  H   H2330     1.0  0.65896  0.90683  0.68312  1.0000
  H   H2331     1.0  0.73133  0.76750  0.60365  1.0000
  C   C1301     1.0  0.74313  0.81956  0.57892  1.0000
  H   H2332     1.0  0.75700  0.80355  0.55354  1.0000
  H   H2333     1.0  0.75969  0.62232  0.60424  1.0000
  C   C1302     1.0  0.58701  0.69703  0.74482  1.0000
  C   C1303     1.0  0.80990  0.79168  0.52271  1.0000
  C   C1304     1.0  0.90033  0.74111  0.58258  1.0000
  C   C1305     1.0  0.76774  0.58336  0.54861  1.0000
  H   H2334     1.0  0.52195  0.61095  0.71958  1.0000
  H   H2335     1.0  0.75183  0.60079  0.57056  1.0000
  H   H2336     1.0  0.98518  0.62289  0.71616  1.0000
  H   H2337     1.0  0.78445  0.60951  0.57768  1.0000
  H   H2338     1.0  0.93703  0.74355  0.58876  1.0000
  C   C1306     1.0  0.76861  0.84800  0.58019  1.0000
  H   H2339     1.0  0.75497  0.60753  0.53065  1.0000
  H   H2340     1.0  0.71584  0.55807  0.57401  1.0000
  H   H2341     1.0  0.93394  0.80465  0.55121  1.0000
  H   H2342     1.0  0.68769  0.72777  0.53387  1.0000
  C   C1307     1.0  0.74624  0.60276  0.61259  1.0000
  H   H2343     1.0  0.60056  0.99799  0.72614  1.0000
  N   N71       1.0  0.67351  0.98502  0.72635  1.0000
  C   C1308     1.0  0.64446  0.97447  0.72287  1.0000
  C   C1309     1.0  0.67929  0.96263  0.72030  1.0000
  C   C1310     1.0  0.92345  0.80776  0.51772  1.0000
  C   C1311     1.0  0.62994  0.89086  0.74615  1.0000
  H   H2344     1.0  0.60939  0.77465  0.55314  1.0000
  S   S285      1.0  0.83368  0.76082  0.52155  1.0000
  C   C1312     1.0  0.71110  0.55027  0.75126  1.0000
  C   C1313     1.0  0.66204  0.94142  0.70174  1.0000
  C   C1314     1.0  0.56784  0.78284  0.61067  1.0000
  H   H2345     1.0  0.91069  0.61349  0.59703  1.0000
  H   H2346     1.0  0.55561  0.62072  0.74698  1.0000
  H   H2347     1.0  0.66149  0.74836  0.52299  1.0000
  H   H2348     1.0  0.63250  0.95628  0.73326  1.0000
  H   H2349     1.0  0.63774  0.96676  0.70582  1.0000
  H   H2350     1.0  0.71809  0.00230  0.55945  1.0000
  H   H2351     1.0  0.67666  0.94963  0.73467  1.0000
  H   H2352     1.0  0.95140  0.59609  0.72134  1.0000
  H   H2353     1.0  0.51526  0.61995  0.74571  1.0000
  H   H2354     1.0  0.63835  0.68946  0.73080  1.0000
  C   C1315     1.0  0.68584  0.51868  0.68351  1.0000
  H   H2355     1.0  0.54226  0.58676  0.71134  1.0000
  H   H2356     1.0  0.60056  0.63016  0.72249  1.0000
  H   H2357     1.0  0.97411  0.69529  0.54708  1.0000
  H   H2358     1.0  0.55771  0.87134  0.73573  1.0000
  H   H2359     1.0  0.89158  0.62853  0.60477  1.0000
  S   S286      1.0  0.69185  0.80683  0.51311  1.0000
  H   H2360     1.0  0.64142  0.92799  0.70721  1.0000
  C   C1316     1.0  0.60633  0.98265  0.72238  1.0000
  H   H2361     1.0  0.75704  0.75049  0.58774  1.0000
  H   H2362     1.0  0.55071  0.73213  0.57171  1.0000
  H   H2363     1.0  0.73918  0.75517  0.54105  1.0000
  H   H2364     1.0  0.71322  0.77671  0.53782  1.0000
  H   H2365     1.0  0.51573  0.69857  0.64150  1.0000
  H   H2366     1.0  0.70529  0.77055  0.63372  1.0000
  C   C1317     1.0  0.68006  0.99199  0.75048  1.0000
  H   H2367     1.0  0.76452  0.72936  0.54319  1.0000
  S   S287      1.0  0.77509  0.53435  0.70812  1.0000
  H   H2368     1.0  0.54192  0.78728  0.57382  1.0000
  N   N72       1.0  0.75388  0.56941  0.58875  1.0000
  C   C1318     1.0  0.75697  0.58301  0.61098  1.0000
  C   C1319     1.0  0.58759  0.81125  0.60104  1.0000
  C   C1320     1.0  0.77066  0.55654  0.58825  1.0000
  H   H2369     1.0  0.90390  0.63550  0.56553  1.0000
  H   H2370     1.0  0.74984  0.56365  0.54301  1.0000
  C   C1321     1.0  0.90641  0.56363  0.75157  1.0000
  H   H2371     1.0  0.70721  0.73499  0.59222  1.0000
  H   H2372     1.0  0.76841  0.54594  0.57217  1.0000
  H   H2373     1.0  0.57746  0.81911  0.59089  1.0000
  H   H2374     1.0  0.61449  0.71246  0.71865  1.0000
  C   C1322     1.0  0.60847  0.70019  0.73316  1.0000
  N   N73       1.0  0.72499  0.76783  0.56869  1.0000
  C   C1323     1.0  0.73441  0.75003  0.55855  1.0000
  C   C1324     1.0  0.91877  0.67641  0.58098  1.0000
  C   C1325     1.0  0.95852  0.71733  0.56581  1.0000
  C   C1326     1.0  0.69200  0.76112  0.59951  1.0000
  C   C1327     1.0  0.70683  0.53200  0.60147  1.0000
  H   H2375     1.0  0.69572  0.78209  0.59704  1.0000
  H   H2376     1.0  0.95347  0.71516  0.52138  1.0000
  H   H2377     1.0  0.92270  0.56020  0.75213  1.0000
  H   H2378     1.0  0.77665  0.59989  0.51595  1.0000
  H   H2379     1.0  0.67066  0.75738  0.62902  1.0000
  C   C1328     1.0  0.93225  0.69883  0.52007  1.0000
  H   H2380     1.0  0.76422  0.79876  0.58096  1.0000
  H   H2381     1.0  0.67250  0.91102  0.71036  1.0000
  C   C1329     1.0  0.76466  0.59194  0.57209  1.0000
  C   C1330     1.0  0.54468  0.71944  0.61622  1.0000
  H   H2382     1.0  0.87924  0.72555  0.57863  1.0000
  H   H2383     1.0  0.58214  0.74437  0.53938  1.0000
  C   C1331     1.0  0.78572  0.52623  0.60496  1.0000
  H   H2384     1.0  0.82638  0.80569  0.53343  1.0000
  C   C1332     1.0  0.63584  0.99555  0.72743  1.0000
  H   H2385     1.0  0.71553  0.98828  0.75163  1.0000
  H   H2386     1.0  0.78092  0.51025  0.61733  1.0000
  C   C1333     1.0  0.62196  0.68711  0.74011  1.0000
  H   H2387     1.0  0.52536  0.79090  0.61112  1.0000
  H   H2388     1.0  0.93744  0.90709  0.51187  1.0000
  H   H2389     1.0  0.97538  0.69299  0.57653  1.0000
  C   C1334     1.0  0.96155  0.64318  0.74466  1.0000
  C   C1335     1.0  0.91944  0.68813  0.73922  1.0000
  S   S288      1.0  0.81478  0.68103  0.50765  1.0000
  H   H2390     1.0  0.89081  0.81448  0.51382  1.0000
  Fe  Fe144     1.0  0.84169  0.72751  0.50878  1.0000
  H   H2391     1.0  0.73006  0.61781  0.74736  1.0000
  H   H2392     1.0  0.92674  0.79093  0.51254  1.0000
  H   H2393     1.0  0.63945  0.00252  0.74481  1.0000
  H   H2394     1.0  0.94204  0.82776  0.51531  1.0000
  H   H2395     1.0  0.76608  0.99292  0.51612  1.0000
  C   C1336     1.0  0.73503  0.00406  0.55050  1.0000
  C   C1337     1.0  0.52607  0.55063  0.75216  1.0000
  C   C1338     1.0  0.68047  0.50766  0.59273  1.0000
  C   C1339     1.0  0.95566  0.68142  0.75459  1.0000
  H   H2396     1.0  0.92150  0.70181  0.75333  1.0000
  C   C1340     1.0  0.62091  0.90712  0.75578  1.0000
  N   N74       1.0  0.52737  0.57796  0.75440  1.0000
  C   C1341     1.0  0.77914  0.98904  0.50673  1.0000
  Fe  Fe145     1.0  0.95665  0.58348  0.80473  1.0000
  S   S289      1.0  0.96286  0.56028  0.83151  1.0000
  C   C1342     1.0  0.98701  0.67275  0.92669  1.0000
  H   H2397     1.0  0.54976  0.62008  0.81485  1.0000
  H   H2398     1.0  0.63068  0.94110  0.91114  1.0000
  H   H2399     1.0  0.54399  0.58508  0.78724  1.0000
  H   H2400     1.0  0.63181  0.85745  0.81771  1.0000
  C   C1343     1.0  0.66574  0.92338  0.80802  1.0000
  H   H2401     1.0  0.59524  0.56853  0.88446  1.0000
  H   H2402     1.0  0.56328  0.67888  0.77302  1.0000
  Fe  Fe146     1.0  0.57925  0.56477  0.81002  1.0000
  S   S290      1.0  0.59843  0.57466  0.77722  1.0000
  S   S291      1.0  0.53441  0.53799  0.81381  1.0000
  Fe  Fe147     1.0  0.63233  0.60368  0.83514  1.0000
  S   S292      1.0  0.65480  0.61611  0.80385  1.0000
  S   S293      1.0  0.65291  0.61090  0.86895  1.0000
  Fe  Fe148     1.0  0.62077  0.61891  0.78993  1.0000
  S   S294      1.0  0.58184  0.91862  0.76510  1.0000
  Fe  Fe149     1.0  0.63104  0.57143  0.79337  1.0000
  S   S295      1.0  0.64762  0.54564  0.78033  1.0000
  S   S296      1.0  0.59977  0.60951  0.82197  1.0000
  S   S297      1.0  0.61004  0.55836  0.82526  1.0000
  N   N75       1.0  0.55480  0.53347  0.88407  1.0000
  H   H2403     1.0  0.96640  0.67278  0.81057  1.0000
  H   H2404     1.0  0.66390  0.93705  0.79635  1.0000
  Fe  Fe150     1.0  0.62480  0.97715  0.83528  1.0000
  S   S298      1.0  0.64308  0.97643  0.80340  1.0000
  S   S299      1.0  0.62910  0.96125  0.86862  1.0000
  Fe  Fe151     1.0  0.60216  0.95615  0.78847  1.0000
  H   H2405     1.0  0.95826  0.69700  0.76720  1.0000
  S   S300      1.0  0.58327  0.95367  0.82069  1.0000
  Fe  Fe152     1.0  0.98390  0.70963  0.97941  1.0000
  H   H2406     1.0  0.61352  0.00414  0.87580  1.0000
  H   H2407     1.0  0.64800  0.54144  0.83176  1.0000
  H   H2408     1.0  0.57688  0.56472  0.86014  1.0000
  S   S301      1.0  0.60470  0.99595  0.77952  1.0000
  H   H2409     1.0  0.59291  0.89188  0.89219  1.0000
  Fe  Fe153     1.0  0.72617  0.71393  0.97759  1.0000
  S   S302      1.0  0.76934  0.74679  0.97636  1.0000
  S   S303      1.0  0.70100  0.70465  0.94579  1.0000
  H   H2410     1.0  0.59284  0.91020  0.84102  1.0000
  H   H2411     1.0  0.73342  0.63764  0.90337  1.0000
  H   H2412     1.0  0.53487  0.82651  0.76573  1.0000
  C   C1344     1.0  0.68705  0.54077  0.76193  1.0000
  H   H2413     1.0  0.55048  0.85200  0.82390  1.0000
  C   C1345     1.0  0.55831  0.53072  0.90822  1.0000
  Fe  Fe154     1.0  0.73170  0.97926  0.97115  1.0000
  S   S304      1.0  0.76719  0.97499  0.97726  1.0000
  S   S305      1.0  0.63091  0.65334  0.76597  1.0000
  S   S306      1.0  0.98610  0.62534  0.81981  1.0000
  N   N76       1.0  0.59334  0.87544  0.82616  1.0000
  C   C1346     1.0  0.57523  0.56283  0.87825  1.0000
  H   H2414     1.0  0.54285  0.97863  0.86919  1.0000
  H   H2415     1.0  0.57887  0.91138  0.88217  1.0000
  H   H2416     1.0  0.91263  0.65449  0.75913  1.0000
  C   C1347     1.0  0.56762  0.86486  0.81350  1.0000
  C   C1348     1.0  0.51014  0.97103  0.80290  1.0000
  H   H2417     1.0  0.55401  0.54448  0.91807  1.0000
  H   H2418     1.0  0.64035  0.00013  0.92061  1.0000
  H   H2419     1.0  0.80457  0.82827  0.93028  1.0000
  H   H2420     1.0  0.51390  0.92747  0.87017  1.0000
  C   C1349     1.0  0.00039  0.63898  0.92145  1.0000
  H   H2421     1.0  0.61749  0.88486  0.79752  1.0000
  H   H2422     1.0  0.60334  0.53746  0.87078  1.0000
  H   H2423     1.0  0.57932  0.85639  0.78152  1.0000
  C   C1350     1.0  0.65614  0.96943  0.88702  1.0000
  C   C1351     1.0  0.65087  0.95613  0.90721  1.0000
  C   C1352     1.0  0.67144  0.96222  0.92254  1.0000
  C   C1353     1.0  0.69774  0.98163  0.91785  1.0000
  C   C1354     1.0  0.60723  0.81477  0.82534  1.0000
  S   S307      1.0  0.72481  0.99038  0.93643  1.0000
  H   H2424     1.0  0.51921  0.96036  0.79602  1.0000
  H   H2425     1.0  0.88115  0.64519  0.97219  1.0000
  S   S308      1.0  0.73308  0.68877  0.00218  1.0000
  H   H2426     1.0  0.87151  0.58113  0.78452  1.0000
  C   C1355     1.0  0.66724  0.63800  0.88952  1.0000
  C   C1356     1.0  0.66584  0.66185  0.88834  1.0000
  C   C1357     1.0  0.67647  0.68202  0.90559  1.0000
  C   C1358     1.0  0.68894  0.67889  0.92417  1.0000
  C   C1359     1.0  0.69076  0.65528  0.92515  1.0000
  C   C1360     1.0  0.67987  0.63497  0.90801  1.0000
  H   H2427     1.0  0.65623  0.66459  0.87430  1.0000
  H   H2428     1.0  0.67490  0.70013  0.90458  1.0000
  H   H2429     1.0  0.70023  0.65248  0.93926  1.0000
  H   H2430     1.0  0.68109  0.61666  0.90919  1.0000
  H   H2431     1.0  0.52961  0.90770  0.86687  1.0000
  H   H2432     1.0  0.80132  0.83403  0.95901  1.0000
  C   C1361     1.0  0.98584  0.65322  0.89005  1.0000
  H   H2433     1.0  0.65840  0.52704  0.85272  1.0000
  C   C1362     1.0  0.89908  0.57148  0.77072  1.0000
  C   C1363     1.0  0.56288  0.84629  0.79298  1.0000
  H   H2434     1.0  0.71097  0.60207  0.87431  1.0000
  H   H2435     1.0  0.64489  0.92982  0.83356  1.0000
  H   H2436     1.0  0.54047  0.62787  0.77693  1.0000
  C   C1364     1.0  0.59315  0.66807  0.77070  1.0000
  H   H2437     1.0  0.55369  0.94620  0.89466  1.0000
  C   C1365     1.0  0.57010  0.58570  0.88658  1.0000
  H   H2438     1.0  0.92638  0.65371  0.83272  1.0000
  H   H2439     1.0  0.66696  0.95183  0.93796  1.0000
  H   H2440     1.0  0.55151  0.87369  0.85469  1.0000
  H   H2441     1.0  0.56290  0.58241  0.90349  1.0000
  C   C1366     1.0  0.55639  0.95063  0.87699  1.0000
  C   C1367     1.0  0.74479  0.63773  0.88906  1.0000
  C   C1368     1.0  0.67810  0.55879  0.76697  1.0000
  H   H2442     1.0  0.52165  0.53790  0.89185  1.0000
  C   C1369     1.0  0.77190  0.88440  0.00048  1.0000
  C   C1370     1.0  0.56196  0.97997  0.87217  1.0000
  H   H2443     1.0  0.93327  0.62753  0.82448  1.0000
  C   C1371     1.0  0.70299  0.99486  0.89763  1.0000
  H   H2444     1.0  0.67539  0.51939  0.76651  1.0000
  C   C1372     1.0  0.72143  0.67758  0.81258  1.0000
  H   H2445     1.0  0.57348  0.94914  0.87184  1.0000
  C   C1373     1.0  0.52545  0.99519  0.81572  1.0000
  H   H2446     1.0  0.68705  0.60069  0.76526  1.0000
  H   H2447     1.0  0.52845  0.53964  0.86345  1.0000
  N   N77       1.0  0.72275  0.79359  0.93396  1.0000
  C   C1374     1.0  0.71776  0.77410  0.91482  1.0000
  C   C1375     1.0  0.70944  0.77645  0.95357  1.0000
  C   C1376     1.0  0.71183  0.81157  0.92820  1.0000
  C   C1377     1.0  0.75188  0.81220  0.93923  1.0000
  C   C1378     1.0  0.76706  0.79737  0.94394  1.0000
  C   C1379     1.0  0.73383  0.78747  0.89410  1.0000
  C   C1380     1.0  0.71195  0.83032  0.94715  1.0000
  C   C1381     1.0  0.67880  0.75850  0.95194  1.0000
  C   C1382     1.0  0.66742  0.74246  0.97277  1.0000
  C   C1383     1.0  0.73738  0.82712  0.00404  1.0000
  C   C1384     1.0  0.72654  0.76560  0.87590  1.0000
  C   C1385     1.0  0.70004  0.84714  0.93961  1.0000
  H   H2448     1.0  0.69657  0.76299  0.90954  1.0000
  H   H2449     1.0  0.72127  0.75740  0.91971  1.0000
  H   H2450     1.0  0.71639  0.76195  0.95662  1.0000
  H   H2451     1.0  0.71535  0.78973  0.96865  1.0000
  H   H2452     1.0  0.69130  0.79881  0.92134  1.0000
  H   H2453     1.0  0.72334  0.82565  0.91488  1.0000
  H   H2454     1.0  0.76190  0.82718  0.92602  1.0000
  H   H2455     1.0  0.75510  0.82521  0.95417  1.0000
  H   H2456     1.0  0.76367  0.78186  0.93099  1.0000
  H   H2457     1.0  0.76057  0.78678  0.95966  1.0000
  H   H2458     1.0  0.72981  0.80317  0.88778  1.0000
  H   H2459     1.0  0.75536  0.79755  0.89756  1.0000
  H   H2460     1.0  0.73236  0.84530  0.95326  1.0000
  H   H2461     1.0  0.70027  0.81795  0.96108  1.0000
  H   H2462     1.0  0.67001  0.77139  0.94951  1.0000
  H   H2463     1.0  0.67216  0.74308  0.93819  1.0000
  H   H2464     1.0  0.94064  0.67628  0.79763  1.0000
  H   H2465     1.0  0.71483  0.69000  0.82161  1.0000
  H   H2466     1.0  0.64617  0.89907  0.83588  1.0000
  C   C1386     1.0  0.79680  0.81804  0.94605  1.0000
  C   C1387     1.0  0.98194  0.67097  0.90393  1.0000
  H   H2467     1.0  0.73838  0.77551  0.86127  1.0000
  H   H2468     1.0  0.73074  0.74963  0.88135  1.0000
  H   H2469     1.0  0.70526  0.75539  0.87115  1.0000
  H   H2470     1.0  0.71151  0.86075  0.92608  1.0000
  H   H2471     1.0  0.67912  0.83326  0.93409  1.0000
  H   H2472     1.0  0.70067  0.86047  0.95349  1.0000
  C   C1388     1.0  0.53751  0.83939  0.78058  1.0000
  S   S309      1.0  0.99366  0.75385  0.98344  1.0000
  C   C1389     1.0  0.59303  0.89150  0.84606  1.0000
  H   H2473     1.0  0.55808  0.87859  0.89463  1.0000
  H   H2474     1.0  0.53312  0.00611  0.93867  1.0000
  C   C1390     1.0  0.78159  0.86625  0.00074  1.0000
  S   S310      1.0  0.98618  0.58276  0.78253  1.0000
  H   H2475     1.0  0.64550  0.73070  0.97150  1.0000
  H   H2476     1.0  0.67386  0.72744  0.97500  1.0000
  H   H2477     1.0  0.61157  0.91100  0.80550  1.0000
  C   C1391     1.0  0.94680  0.66155  0.80202  1.0000
  H   H2478     1.0  0.57940  0.53828  0.91231  1.0000
  H   H2479     1.0  0.67383  0.75681  0.98725  1.0000
  N   N78       1.0  0.72599  0.61311  0.82740  1.0000
  C   C1392     1.0  0.69694  0.59220  0.82974  1.0000
  C   C1393     1.0  0.72897  0.63758  0.81536  1.0000
  C   C1394     1.0  0.73713  0.59959  0.81328  1.0000
  C   C1395     1.0  0.74108  0.62217  0.84913  1.0000
  C   C1396     1.0  0.72598  0.62325  0.86940  1.0000
  C   C1397     1.0  0.69034  0.56368  0.83826  1.0000
  C   C1398     1.0  0.76590  0.61859  0.80574  1.0000
  C   C1399     1.0  0.68241  0.98890  0.88235  1.0000
  Fe  Fe155     1.0  0.58840  0.99475  0.81278  1.0000
  C   C1400     1.0  0.66195  0.54666  0.84586  1.0000
  C   C1401     1.0  0.77729  0.60163  0.79700  1.0000
  H   H2480     1.0  0.68632  0.58803  0.81362  1.0000
  H   H2481     1.0  0.68748  0.60040  0.84040  1.0000
  H   H2482     1.0  0.74997  0.65227  0.81155  1.0000
  H   H2483     1.0  0.71806  0.63048  0.79926  1.0000
  H   H2484     1.0  0.72454  0.58990  0.79822  1.0000
  H   H2485     1.0  0.73671  0.58233  0.82204  1.0000
  H   H2486     1.0  0.74830  0.60823  0.85359  1.0000
  H   H2487     1.0  0.75934  0.64292  0.84773  1.0000
  H   H2488     1.0  0.71540  0.63418  0.86632  1.0000
  H   H2489     1.0  0.69247  0.55150  0.82488  1.0000
  H   H2490     1.0  0.70380  0.56604  0.85201  1.0000
  H   H2491     1.0  0.77902  0.63231  0.81935  1.0000
  H   H2492     1.0  0.76628  0.63156  0.79216  1.0000
  H   H2493     1.0  0.68692  0.99939  0.86698  1.0000
  H   H2494     1.0  0.73413  0.66697  0.84160  1.0000
  S   S311      1.0  0.80737  0.71048  0.99700  1.0000
  H   H2495     1.0  0.55494  0.58592  0.87585  1.0000
  S   S312      1.0  0.98197  0.69598  0.94321  1.0000
  H   H2496     1.0  0.55127  0.51608  0.95178  1.0000
  H   H2497     1.0  0.90700  0.62931  0.81082  1.0000
  H   H2498     1.0  0.79712  0.61567  0.79030  1.0000
  H   H2499     1.0  0.77934  0.58971  0.81027  1.0000
  H   H2500     1.0  0.76436  0.58709  0.78363  1.0000
  C   C1402     1.0  0.61576  0.89547  0.81222  1.0000
  C   C1403     1.0  0.85320  0.71009  0.98971  1.0000
  H   H2501     1.0  0.75951  0.65960  0.88543  1.0000
  H   H2502     1.0  0.61015  0.61579  0.89823  1.0000
  C   C1404     1.0  0.64324  0.91198  0.82414  1.0000
  H   H2503     1.0  0.52809  0.63342  0.81401  1.0000
  C   C1405     1.0  0.52531  0.60923  0.78506  1.0000
  S   S313      1.0  0.00123  0.61475  0.88196  1.0000
  H   H2504     1.0  0.70004  0.64328  0.83356  1.0000
  Fe  Fe156     1.0  0.77647  0.72332  0.00219  1.0000
  H   H2505     1.0  0.55794  0.51794  0.85252  1.0000
  H   H2506     1.0  0.56571  0.85429  0.86444  1.0000
  C   C1406     1.0  0.56970  0.87540  0.86170  1.0000
  C   C1407     1.0  0.61414  0.67062  0.75870  1.0000
  H   H2507     1.0  0.57649  0.83355  0.83709  1.0000
  C   C1408     1.0  0.52547  0.98428  0.93346  1.0000
  S   S314      1.0  0.70521  0.94423  0.99281  1.0000
  H   H2508     1.0  0.58606  0.79800  0.82482  1.0000
  H   H2509     1.0  0.86335  0.61584  0.98940  1.0000
  C   C1409     1.0  0.99636  0.65663  0.93535  1.0000
  H   H2510     1.0  0.56577  0.88262  0.80845  1.0000
  C   C1410     1.0  0.74479  0.87404  0.00207  1.0000
  H   H2511     1.0  0.61552  0.81723  0.84221  1.0000
  H   H2512     1.0  0.95501  0.63234  0.78777  1.0000
  H   H2513     1.0  0.74191  0.69173  0.80716  1.0000
  Fe  Fe157     1.0  0.99459  0.56213  0.81029  1.0000
  C   C1411     1.0  0.59514  0.61439  0.88634  1.0000
  C   C1412     1.0  0.84208  0.72352  0.00080  1.0000
  H   H2514     1.0  0.61150  0.89949  0.85615  1.0000
  C   C1413     1.0  0.92712  0.64176  0.81844  1.0000
  H   H2515     1.0  0.60760  0.85730  0.84944  1.0000
  H   H2516     1.0  0.60269  0.83859  0.80084  1.0000
  H   H2517     1.0  0.61800  0.80859  0.81417  1.0000
  H   H2518     1.0  0.80702  0.80701  0.95064  1.0000
  H   H2519     1.0  0.56043  0.82633  0.79785  1.0000
  C   C1414     1.0  0.72038  0.65569  0.82751  1.0000
  H   H2520     1.0  0.65812  0.55816  0.85871  1.0000
  C   C1415     1.0  0.52656  0.58349  0.77856  1.0000
  C   C1416     1.0  0.59625  0.85180  0.83358  1.0000
  C   C1417     1.0  0.60437  0.00240  0.89195  1.0000
  C   C1418     1.0  0.57530  0.89028  0.88401  1.0000
  C   C1419     1.0  0.61033  0.84189  0.81792  1.0000
  N   N79       1.0  0.96459  0.66273  0.76322  1.0000
  S   S315      1.0  0.91578  0.57633  0.79629  1.0000
  H   H2521     1.0  0.70818  0.66775  0.79794  1.0000
  H   H2522     1.0  0.88840  0.70874  0.98345  1.0000
  H   H2523     1.0  0.53858  0.85860  0.77532  1.0000
  H   H2524     1.0  0.72394  0.80518  0.00555  1.0000
  H   H2525     1.0  0.92724  0.63067  0.77572  1.0000
  H   H2526     1.0  0.97475  0.68331  0.89696  1.0000
  H   H2527     1.0  0.60364  0.61888  0.86981  1.0000
  S   S316      1.0  0.73103  0.89569  0.00186  1.0000
  H   H2528     1.0  0.59052  0.63040  0.89103  1.0000
  H   H2529     1.0  0.68497  0.93565  0.81709  1.0000
  H   H2530     1.0  0.84085  0.69292  0.97852  1.0000
  Fe  Fe158     1.0  0.99427  0.60262  0.84516  1.0000
  C   C1420     1.0  0.76444  0.83746  0.00255  1.0000
  C   C1421     1.0  0.94780  0.64557  0.78166  1.0000
  C   C1422     1.0  0.53187  0.92816  0.86434  1.0000
  H   H2531     1.0  0.57164  0.98541  0.85605  1.0000
  H   H2532     1.0  0.75526  0.62690  0.89345  1.0000
  Fe  Fe159     1.0  0.74114  0.94116  0.00054  1.0000
  C   C1423     1.0  0.87743  0.57520  0.76977  1.0000
  C   C1424     1.0  0.71237  0.00421  0.78267  1.0000
  H   H2533     1.0  0.58739  0.65605  0.78531  1.0000
  C   C1425     1.0  0.52773  0.52870  0.87867  1.0000
  H   H2534     1.0  0.98172  0.65210  0.87265  1.0000
  H   H2535     1.0  0.53362  0.93219  0.84654  1.0000
  H   H2536     1.0  0.66556  0.90623  0.79875  1.0000
  C   C1426     1.0  0.99510  0.63701  0.89870  1.0000
  H   H2537     1.0  0.78542  0.90643  0.99910  1.0000
  C   C1427     1.0  0.69365  0.58657  0.76149  1.0000
  H   H2538     1.0  0.80260  0.87466  0.99963  1.0000
  H   H2539     1.0  0.52606  0.96070  0.90602  1.0000
  H   H2540     1.0  0.63403  0.92492  0.76605  1.0000
  C   C1428     1.0  0.88020  0.71883  0.99267  1.0000
  H   H2541     1.0  0.52009  0.82768  0.79099  1.0000
  H   H2542     1.0  0.66663  0.97373  0.76027  1.0000
  H   H2543     1.0  0.60035  0.98240  0.89849  1.0000
  H   H2544     1.0  0.96029  0.60867  0.76145  1.0000
  C   C1429     1.0  0.57960  0.68108  0.76372  1.0000
  C   C1430     1.0  0.52972  0.61525  0.80973  1.0000
  C   C1431     1.0  0.70903  0.00225  0.75776  1.0000
  C   C1432     1.0  0.99352  0.67933  0.77033  1.0000
  H   H2545     1.0  0.70009  0.98355  0.78980  1.0000
  H   H2546     1.0  0.52775  0.99197  0.89915  1.0000
  H   H2547     1.0  0.00044  0.65770  0.95275  1.0000
  H   H2548     1.0  0.54271  0.55157  0.76166  1.0000
  C   C1433     1.0  0.88053  0.63735  0.98883  1.0000
  H   H2549     1.0  0.51470  0.59720  0.81884  1.0000
  H   H2550     1.0  0.50900  0.56613  0.78608  1.0000
  C   C1434     1.0  0.58653  0.51647  0.87414  1.0000
  S   S317      1.0  0.94896  0.69345  0.00156  1.0000
  C   C1435     1.0  0.56596  0.99754  0.91102  1.0000
  H   H2551     1.0  0.53184  0.97450  0.94568  1.0000
  C   C1436     1.0  0.53532  0.98288  0.91080  1.0000
  C   C1437     1.0  0.72767  0.84522  0.00386  1.0000
  H   H2552     1.0  0.57080  0.98472  0.92141  1.0000
  H   H2553     1.0  0.99784  0.66779  0.78260  1.0000
  H   H2554     1.0  0.89900  0.63727  0.99177  1.0000
  S   S318      1.0  0.00226  0.52811  0.79829  1.0000
  N   N80       1.0  0.57893  0.00225  0.88910  1.0000
  H   H2555     1.0  0.58860  0.51162  0.89127  1.0000
  H   H2556     1.0  0.99211  0.71006  0.79247  1.0000
  H   H2557     1.0  0.57020  0.60278  0.75687  1.0000
  C   C1438     1.0  0.55963  0.51432  0.87018  1.0000
  S   S319      1.0  0.77798  0.81566  0.00368  1.0000
  Fe  Fe160     1.0  0.76160  0.76864  0.00383  1.0000
  S   S320      1.0  0.71849  0.73695  0.00418  1.0000
  C   C1439     1.0  0.00466  0.70914  0.77971  1.0000
  H   H2558     1.0  0.70669  0.83686  0.00512  1.0000
  C   C1440     1.0  0.87806  0.65599  0.00577  1.0000
  H   H2559     1.0  0.89466  0.67742  0.00374  1.0000
  H   H2560     1.0  0.85943  0.65531  0.00181  1.0000
