data_image0
_chemical_formula_structural       SHCHCNSHSCHS2FeSH2C6H4C6HNH2C2HC3HCHC6H5SH3CH2CHC2FeHCSC2HSH2CH6CHCH6CH4CHCH6CSH6CHCHCFeHCH4NC2FeC5HCH18SCH4C2FeH2CH2CH3CHCH3SCH3C2HCSH5NHC2HSH2CHNSHSFeSFeS2HSCSFeSFeHSHCFeC2H3CHC5HCH2CH2C3HCNC12H19CHCH10C2H8FeH6C2HNH3CHCHCH2CH5CHSCH2CH2C3H6FeH2C2H2CH4CH3NCH5S2CSCHSFeS2FeS2FeSFeS3FeS2FeS2FeSFeS3H2SC6H3SC6H5CHCH2C2H2C7H3C6H4C6H12CH11CH2FeH2NFeC6H2NC11H10CH16CNC12H25FeH4CH8CH5CHC2HCH2C2H4CH2CNH2CHC2HNH2C3H4CHC2HCH4CH4CH3CHCH2CHC2H4C2H9CH3CH6CH3FeS2FeS2FeSFeS3FeS2FeS2FeSFeS3C3H4CH2C2HCH2CH4CH3C2HCHCHCHC6H5C2H2C3H4CHCHCH2CHC2H2CH4C2H3CH2CH11CHCH3CH3CH3NH5CH2CH4C3H2C3H2C2H2C3H4CH2CHNC4HC3H7C2H8CHNC4HCHCH6C2HCHCH6CH4C2H5C5H2CHCHFeS2FeS2FeSFeS3FeS2FeS2FeSFeS3FeSFeH2NH3FeSHS2FeHFeH3FeSFeHFeSCH3C6H3SC6H4C6H2CHC6H3C6H5NC4HC2HCH2CH9CH6CHCHSCH9CH3C2H3NC12H21SH8S2H7C2H3C2H2CSCSH3CH2CHNHC4HCH7CH8CH6CHFeHCSH6CH2CH2C3SCH3CH2C2FeC2H2NSHCH5C2H3SHC2H2CH2CSH2C3SH2CHNCH2NCHC2H3CHC5H2CH2SCFeH4SFeHFeH2SH2FeCFeH3CSFeSFeSFeS2FeSFeSFeS3FeS2FeS2FeSFeS2C6H4C3HC6H3C6H4CHC2HC7H3CSC7HSH2CH2NC5H13CH3CH2CH7CH5CH2CSHCH4NHNCHCHCHCHCH3CH5CH3SNHC5H5C2H2CHCH2C2HCHCHCHNC2HCH3CHCH6CSH4CHC6HCH2CH5C2H3CH4C2H11C2H4CHSHNCSH7C3FeHCH2CH2CHSHSCHC2SH5C2H2SC3H2C3H2SH7C2H7CH3C2HFeSHFeS2FeSFeHS2FeS2FeS2FeSFeS3C6H4C3H3C2HC2H3CHCHCNC3H2NHCH3CH10CH2CH3C3HC2H3CH3CH4CSHCH2CH2CHC2H12CHC3HC4HCHNH4CH5C2H2C3H5SC2H8C2HCH15CH6C2H3C2H2C2H2CH2C4H5CH4CHCHNHCH3CH6CH4CHC3HC2HC2HCH3CH4CH4CH2C5HCHCH2C2HCH4C2HNCH11CNC2H7CH2CHSHCH4CH10C2H2CH3CH2CSNCSHSFeS2FeS2FeSFeS3FeS2FeS2FeSFeS3H4C6H4C6H10C7H3C8H2CHC5HCH2C2H6NC12H25CH2CH3CH7CH7C2H2SHCH2CNC12H21C2H6CHFeC2H3CNH2CH2C2HCH2CH11CHNH2C2H2CH7FeCH4CH4CH2CHCH2CH3CH2CH3CHCHC2HFeHNHC2H4SHSH3C2SH2FeHCH4CH2C2H2C3H5FeHSFeS2FeHFeS3FeSFeS2FeHFeCS2HC2H2CH3CSH2CH2C6H2CH4C2NCH5NH4CSH5C2HSH3CH4CH2CSHCHCH3CH3C3H3CHCH3NH5CHC2H6CHNCHC2H2C2H4C2H3C2H2C6H2CH3CH4CSCHC2HSH2C3H2CHCH2CHC3SH2C4HC8HSH4C3H2CNHSH14CHFeH2CHCHCH3CSH2CH4CH2FeH2C2H2C4H2NH5C2H4CH6C2HCH2C2H9SHCFeHCH8SH5CH2CH2CH2CH2CH3NH3C2HCHCH
_chemical_formula_sum              "S192 H1536 C864 N48 Fe96"
_cell_length_a       43.7917
_cell_length_b       43.7011
_cell_length_c       53.9527
_cell_angle_alpha    90.2825
_cell_angle_beta     89.4599
_cell_angle_gamma    90.8301

_space_group_name_H-M_alt    "P 1"
_space_group_IT_number       1

loop_
  _space_group_symop_operation_xyz
  'x, y, z'

loop_
  _atom_site_type_symbol
  _atom_site_label
  _atom_site_symmetry_multiplicity
  _atom_site_fract_x
  _atom_site_fract_y
  _atom_site_fract_z
  _atom_site_occupancy
  S   S1        1.0  0.42137  0.48048  0.25602  1.0000
  H   H1        1.0  0.07939  0.45061  0.24041  1.0000
  C   C1        1.0  0.17033  0.28041  0.30373  1.0000
  H   H2        1.0  0.22360  0.48364  0.28723  1.0000
  C   C2        1.0  0.47118  0.35515  0.02888  1.0000
  N   N1        1.0  0.16158  0.19086  0.30853  1.0000
  S   S2        1.0  0.02650  0.43563  0.27291  1.0000
  H   H3        1.0  0.41852  0.09676  0.16488  1.0000
  S   S3        1.0  0.43946  0.05314  0.26548  1.0000
  C   C3        1.0  0.48093  0.36242  0.05593  1.0000
  H   H4        1.0  0.34386  0.11022  0.21667  1.0000
  S   S4        1.0  0.17175  0.42520  0.28750  1.0000
  S   S5        1.0  0.46850  0.46266  0.19474  1.0000
  Fe  Fe1       1.0  0.46726  0.47092  0.23619  1.0000
  S   S6        1.0  0.24039  0.09403  0.31145  1.0000
  H   H5        1.0  0.39457  0.09293  0.28694  1.0000
  H   H6        1.0  0.48675  0.14343  0.16262  1.0000
  C   C4        1.0  0.40248  0.04534  0.27872  1.0000
  C   C5        1.0  0.38986  0.01578  0.28028  1.0000
  C   C6        1.0  0.36031  0.01106  0.29056  1.0000
  C   C7        1.0  0.34281  0.03573  0.29943  1.0000
  C   C8        1.0  0.35558  0.06525  0.29817  1.0000
  C   C9        1.0  0.38513  0.06996  0.28788  1.0000
  H   H7        1.0  0.44586  0.35259  0.02854  1.0000
  H   H8        1.0  0.16556  0.24371  0.27750  1.0000
  H   H9        1.0  0.14059  0.23248  0.32211  1.0000
  H   H10       1.0  0.34262  0.08450  0.30494  1.0000
  C   C10       1.0  0.06696  0.43066  0.27549  1.0000
  C   C11       1.0  0.07860  0.41754  0.29724  1.0000
  C   C12       1.0  0.11039  0.41439  0.30078  1.0000
  C   C13       1.0  0.13124  0.42506  0.28284  1.0000
  C   C14       1.0  0.11963  0.43776  0.26093  1.0000
  C   C15       1.0  0.08779  0.44041  0.25721  1.0000
  H   H11       1.0  0.45137  0.16497  0.13177  1.0000
  N   N2        1.0  0.44988  0.12956  0.20261  1.0000
  H   H12       1.0  0.13535  0.44611  0.24686  1.0000
  H   H13       1.0  0.27474  0.46774  0.23300  1.0000
  C   C16       1.0  0.06875  0.02289  0.27935  1.0000
  C   C17       1.0  0.07149  0.05449  0.27550  1.0000
  H   H14       1.0  0.42612  0.14730  0.17058  1.0000
  C   C18       1.0  0.12092  0.05622  0.29697  1.0000
  C   C19       1.0  0.11819  0.02464  0.30089  1.0000
  C   C20       1.0  0.09231  0.00818  0.29216  1.0000
  H   H15       1.0  0.05369  0.06624  0.26575  1.0000
  C   C21       1.0  0.36259  0.43456  0.20643  1.0000
  H   H16       1.0  0.11875  0.40415  0.31754  1.0000
  C   C22       1.0  0.39374  0.45758  0.27249  1.0000
  C   C23       1.0  0.39762  0.42631  0.27678  1.0000
  C   C24       1.0  0.37513  0.40931  0.29001  1.0000
  C   C25       1.0  0.34829  0.42311  0.29900  1.0000
  C   C26       1.0  0.34425  0.45431  0.29452  1.0000
  C   C27       1.0  0.36686  0.47138  0.28147  1.0000
  H   H17       1.0  0.41805  0.41526  0.27005  1.0000
  H   H18       1.0  0.11215  0.19018  0.30952  1.0000
  H   H19       1.0  0.43337  0.04291  0.17286  1.0000
  H   H20       1.0  0.21001  0.18814  0.30114  1.0000
  H   H21       1.0  0.02151  0.05088  0.11820  1.0000
  S   S7        1.0  0.23627  0.37061  0.31350  1.0000
  H   H22       1.0  0.47020  0.05060  0.15845  1.0000
  H   H23       1.0  0.21385  0.15831  0.24820  1.0000
  H   H24       1.0  0.09905  0.09534  0.28109  1.0000
  C   C28       1.0  0.12449  0.19674  0.27155  1.0000
  H   H25       1.0  0.20104  0.24449  0.29383  1.0000
  H   H26       1.0  0.43840  0.38422  0.06704  1.0000
  C   C29       1.0  0.18801  0.18276  0.29167  1.0000
  H   H27       1.0  0.46483  0.12426  0.25594  1.0000
  C   C30       1.0  0.17592  0.24728  0.29590  1.0000
  C   C31       1.0  0.45740  0.09880  0.19123  1.0000
  Fe  Fe2       1.0  0.99288  0.01116  0.24695  1.0000
  H   H28       1.0  0.39332  0.09314  0.20017  1.0000
  C   C32       1.0  0.48224  0.29958  0.03260  1.0000
  S   S8        1.0  0.00170  0.46396  0.20258  1.0000
  C   C33       1.0  0.39175  0.11704  0.20707  1.0000
  C   C34       1.0  0.09733  0.07096  0.28426  1.0000
  H   H29       1.0  0.27013  0.23121  0.31861  1.0000
  S   S9        1.0  0.03662  0.00065  0.26878  1.0000
  H   H30       1.0  0.00340  0.32911  0.03924  1.0000
  H   H31       1.0  0.26471  0.48674  0.28789  1.0000
  C   C35       1.0  0.46442  0.18043  0.14434  1.0000
  H   H32       1.0  0.22481  0.36516  0.17059  1.0000
  H   H33       1.0  0.00358  0.06692  0.05534  1.0000
  H   H34       1.0  0.13604  0.01285  0.31053  1.0000
  H   H35       1.0  0.48340  0.23321  0.99764  1.0000
  H   H36       1.0  0.19175  0.13352  0.29862  1.0000
  H   H37       1.0  0.36230  0.14093  0.23352  1.0000
  C   C36       1.0  0.47643  0.14033  0.21831  1.0000
  H   H38       1.0  0.46764  0.41034  0.05530  1.0000
  C   C37       1.0  0.44892  0.29113  0.04025  1.0000
  H   H39       1.0  0.23791  0.14995  0.27441  1.0000
  H   H40       1.0  0.14329  0.19280  0.25809  1.0000
  H   H41       1.0  0.47663  0.34271  0.06842  1.0000
  H   H42       1.0  0.48549  0.18811  0.13440  1.0000
  H   H43       1.0  0.46145  0.26608  0.07344  1.0000
  H   H44       1.0  0.43477  0.28634  0.02370  1.0000
  C   C38       1.0  0.44453  0.15405  0.18353  1.0000
  H   H45       1.0  0.07556  0.18631  0.27299  1.0000
  H   H46       1.0  0.36588  0.41195  0.19738  1.0000
  H   H47       1.0  0.04913  0.07245  0.15331  1.0000
  H   H48       1.0  0.42573  0.10931  0.23391  1.0000
  C   C39       1.0  0.44302  0.09117  0.16561  1.0000
  H   H49       1.0  0.31181  0.31937  0.25767  1.0000
  C   C40       1.0  0.02377  0.07267  0.15362  1.0000
  H   H50       1.0  0.24699  0.43381  0.27846  1.0000
  H   H51       1.0  0.01648  0.24594  0.11965  1.0000
  H   H52       1.0  0.45484  0.10439  0.15077  1.0000
  H   H53       1.0  0.45097  0.08012  0.20437  1.0000
  H   H54       1.0  0.43824  0.30978  0.05113  1.0000
  H   H55       1.0  0.09078  0.19340  0.24235  1.0000
  C   C41       1.0  0.01128  0.04728  0.13682  1.0000
  S   S10       1.0  0.30554  0.02812  0.31217  1.0000
  H   H56       1.0  0.41846  0.14892  0.22938  1.0000
  H   H57       1.0  0.99598  0.02858  0.08871  1.0000
  H   H58       1.0  0.01618  0.09545  0.14728  1.0000
  H   H59       1.0  0.38455  0.44173  0.21504  1.0000
  H   H60       1.0  0.12063  0.22166  0.27355  1.0000
  H   H61       1.0  0.99914  0.41587  0.06529  1.0000
  C   C42       1.0  0.21606  0.14409  0.26507  1.0000
  H   H62       1.0  0.09830  0.15761  0.25741  1.0000
  C   C43       1.0  0.44587  0.05728  0.15907  1.0000
  H   H63       1.0  0.23966  0.43143  0.21360  1.0000
  C   C44       1.0  0.99174  0.24007  0.11907  1.0000
  Fe  Fe3       1.0  0.20267  0.40893  0.31906  1.0000
  H   H64       1.0  0.35669  0.45177  0.19224  1.0000
  C   C45       1.0  0.24671  0.45101  0.26347  1.0000
  H   H65       1.0  0.36969  0.10146  0.24129  1.0000
  H   H66       1.0  0.21663  0.11964  0.25935  1.0000
  H   H67       1.0  0.21138  0.36411  0.20226  1.0000
  H   H68       1.0  0.38573  0.13239  0.19165  1.0000
  N   N3        1.0  0.28034  0.41854  0.23348  1.0000
  C   C46       1.0  0.30641  0.42300  0.21522  1.0000
  C   C47       1.0  0.25110  0.41030  0.22008  1.0000
  Fe  Fe4       1.0  0.99285  0.44678  0.24139  1.0000
  C   C48       1.0  0.28744  0.39494  0.25281  1.0000
  C   C49       1.0  0.29533  0.36249  0.24343  1.0000
  C   C50       1.0  0.33770  0.43252  0.22643  1.0000
  C   C51       1.0  0.36537  0.11753  0.22585  1.0000
  C   C52       1.0  0.25378  0.39003  0.19646  1.0000
  H   H69       1.0  0.45061  0.20086  0.14886  1.0000
  C   C53       1.0  0.30742  0.34292  0.26451  1.0000
  H   H70       1.0  0.29539  0.45421  0.25892  1.0000
  H   H71       1.0  0.43604  0.17522  0.19273  1.0000
  H   H72       1.0  0.45689  0.24252  0.04591  1.0000
  H   H73       1.0  0.31048  0.40199  0.20418  1.0000
  H   H74       1.0  0.23450  0.39910  0.23311  1.0000
  H   H75       1.0  0.37858  0.38520  0.29328  1.0000
  H   H76       1.0  0.40275  0.99656  0.27336  1.0000
  H   H77       1.0  0.42386  0.25718  0.06188  1.0000
  H   H78       1.0  0.30640  0.40323  0.26463  1.0000
  H   H79       1.0  0.26785  0.39178  0.26580  1.0000
  H   H80       1.0  0.31311  0.36296  0.22871  1.0000
  H   H81       1.0  0.27440  0.35087  0.23644  1.0000
  H   H82       1.0  0.32389  0.46538  0.30134  1.0000
  H   H83       1.0  0.34524  0.41562  0.24027  1.0000
  H   H84       1.0  0.98981  0.29740  0.02099  1.0000
  H   H85       1.0  0.33652  0.45537  0.23538  1.0000
  H   H86       1.0  0.26422  0.40361  0.18110  1.0000
  H   H87       1.0  0.26810  0.36976  0.19930  1.0000
  S   S11       1.0  0.15283  0.07861  0.30770  1.0000
  C   C54       1.0  0.09549  0.18260  0.26049  1.0000
  H   H88       1.0  0.11145  0.47830  0.30256  1.0000
  H   H89       1.0  0.32918  0.35278  0.27165  1.0000
  H   H90       1.0  0.29056  0.34156  0.28001  1.0000
  H   H91       1.0  0.20735  0.39852  0.18408  1.0000
  C   C55       1.0  0.18906  0.14907  0.28272  1.0000
  C   C56       1.0  0.16335  0.22444  0.31561  1.0000
  Fe  Fe5       1.0  0.48026  0.02665  0.24884  1.0000
  H   H92       1.0  0.16798  0.14238  0.27269  1.0000
  H   H93       1.0  0.30030  0.44076  0.20142  1.0000
  C   C57       1.0  0.22236  0.37883  0.18789  1.0000
  H   H94       1.0  0.12819  0.15742  0.29577  1.0000
  H   H95       1.0  0.43591  0.05282  0.14052  1.0000
  C   C58       1.0  0.44784  0.26246  0.05635  1.0000
  H   H96       1.0  0.01599  0.06909  0.17305  1.0000
  H   H97       1.0  0.18849  0.19691  0.27471  1.0000
  H   H98       1.0  0.02388  0.28005  0.05371  1.0000
  C   C59       1.0  0.42214  0.12686  0.21938  1.0000
  H   H99       1.0  0.99061  0.22531  0.15673  1.0000
  C   C60       1.0  0.13113  0.18277  0.29718  1.0000
  H   H100      1.0  0.06283  0.40976  0.31150  1.0000
  H   H101      1.0  0.22548  0.44745  0.25270  1.0000
  H   H102      1.0  0.48804  0.17917  0.17895  1.0000
  S   S12       1.0  0.99097  0.01559  0.20523  1.0000
  C   C61       1.0  0.24473  0.48255  0.27571  1.0000
  H   H103      1.0  0.18093  0.29625  0.28998  1.0000
  H   H104      1.0  0.01915  0.02529  0.14450  1.0000
  H   H105      1.0  0.18066  0.28527  0.32207  1.0000
  C   C62       1.0  0.46329  0.38948  0.06654  1.0000
  C   C63       1.0  0.47310  0.16358  0.16793  1.0000
  H   H106      1.0  0.48251  0.09639  0.18857  1.0000
  C   C64       1.0  0.27569  0.44876  0.24671  1.0000
  S   S13       1.0  0.32051  0.40002  0.31513  1.0000
  H   H107      1.0  0.99989  0.29677  0.07733  1.0000
  H   H108      1.0  0.14547  0.28497  0.30479  1.0000
  H   H109      1.0  0.47091  0.39416  0.08581  1.0000
  H   H110      1.0  0.47298  0.16438  0.22464  1.0000
  H   H111      1.0  0.47630  0.37617  0.01798  1.0000
  N   N4        1.0  0.48616  0.32786  0.01691  1.0000
  H   H112      1.0  0.48422  0.09653  0.23683  1.0000
  C   C65       1.0  0.48299  0.12114  0.24168  1.0000
  C   C66       1.0  0.00005  0.28625  0.05855  1.0000
  H   H113      1.0  0.01641  0.99168  0.11415  1.0000
  S   S14       1.0  0.48756  0.02290  0.20744  1.0000
  H   H114      1.0  0.98908  0.36007  0.07182  1.0000
  H   H115      1.0  0.98901  0.21663  0.11124  1.0000
  C   C67       1.0  0.47135  0.32182  0.99217  1.0000
  H   H116      1.0  0.44612  0.31990  0.99441  1.0000
  N   N5        1.0  0.33827  0.00846  0.38793  1.0000
  S   S15       1.0  0.26158  0.38661  0.36968  1.0000
  H   H117      1.0  0.17991  0.03372  0.60377  1.0000
  S   S16       1.0  0.18907  0.39290  0.35707  1.0000
  Fe  Fe6       1.0  0.22662  0.42403  0.37155  1.0000
  S   S17       1.0  0.21038  0.45301  0.40497  1.0000
  Fe  Fe7       1.0  0.22502  0.35650  0.35267  1.0000
  S   S18       1.0  0.21353  0.30846  0.36809  1.0000
  S   S19       1.0  0.23861  0.44212  0.33346  1.0000
  H   H118      1.0  0.30143  0.09056  0.41478  1.0000
  S   S20       1.0  0.20206  0.10062  0.36372  1.0000
  C   C68       1.0  0.36094  0.01126  0.36668  1.0000
  S   S21       1.0  0.27493  0.08571  0.36443  1.0000
  Fe  Fe8       1.0  0.23152  0.06254  0.37842  1.0000
  S   S22       1.0  0.22510  0.04609  0.41898  1.0000
  Fe  Fe9       1.0  0.24472  0.12123  0.34693  1.0000
  H   H119      1.0  0.17121  0.16105  0.38244  1.0000
  S   S23       1.0  0.22499  0.03328  0.34434  1.0000
  H   H120      1.0  0.19937  0.00476  0.56760  1.0000
  C   C69       1.0  0.23234  0.01261  0.43714  1.0000
  Fe  Fe10      1.0  0.27133  0.40276  0.33048  1.0000
  C   C70       1.0  0.23081  0.01471  0.46321  1.0000
  C   C71       1.0  0.17491  0.00292  0.57310  1.0000
  H   H121      1.0  0.22638  0.03665  0.47179  1.0000
  H   H122      1.0  0.35107  0.48720  0.62763  1.0000
  H   H123      1.0  0.17892  0.22782  0.33163  1.0000
  C   C72       1.0  0.39322  0.02381  0.37317  1.0000
  H   H124      1.0  0.27127  0.06242  0.64300  1.0000
  C   C73       1.0  0.12181  0.06250  0.36874  1.0000
  C   C74       1.0  0.22597  0.27080  0.35989  1.0000
  C   C75       1.0  0.21523  0.24556  0.37383  1.0000
  C   C76       1.0  0.22420  0.21535  0.36802  1.0000
  C   C77       1.0  0.24405  0.20982  0.34803  1.0000
  H   H125      1.0  0.27384  0.31769  0.50513  1.0000
  C   C78       1.0  0.24573  0.26526  0.33986  1.0000
  H   H126      1.0  0.19998  0.24944  0.38938  1.0000
  H   H127      1.0  0.21606  0.19640  0.37918  1.0000
  C   C79       1.0  0.17089  0.01021  0.60066  1.0000
  H   H128      1.0  0.14772  0.20482  0.36033  1.0000
  H   H129      1.0  0.23370  0.07620  0.63619  1.0000
  C   C80       1.0  0.25694  0.48484  0.43017  1.0000
  C   C81       1.0  0.12318  0.45354  0.37646  1.0000
  C   C82       1.0  0.14070  0.00721  0.43451  1.0000
  H   H130      1.0  0.13858  0.45212  0.33820  1.0000
  C   C83       1.0  0.25469  0.23505  0.33405  1.0000
  N   N6        1.0  0.24664  0.39169  0.46029  1.0000
  C   C84       1.0  0.21407  0.38958  0.45137  1.0000
  C   C85       1.0  0.25016  0.41771  0.47876  1.0000
  C   C86       1.0  0.26683  0.39861  0.43804  1.0000
  C   C87       1.0  0.25703  0.36186  0.47110  1.0000
  C   C88       1.0  0.23867  0.34945  0.49361  1.0000
  C   C89       1.0  0.20741  0.36578  0.43058  1.0000
  C   C90       1.0  0.30048  0.40812  0.44344  1.0000
  C   C91       1.0  0.22256  0.42455  0.49615  1.0000
  C   C92       1.0  0.23164  0.44672  0.51693  1.0000
  C   C93       1.0  0.24914  0.31741  0.50056  1.0000
  C   C94       1.0  0.17371  0.36578  0.42348  1.0000
  C   C95       1.0  0.31835  0.41335  0.41930  1.0000
  H   H131      1.0  0.20699  0.41230  0.44445  1.0000
  H   H132      1.0  0.19789  0.38445  0.46674  1.0000
  H   H133      1.0  0.27075  0.41431  0.49036  1.0000
  H   H134      1.0  0.25430  0.43973  0.46888  1.0000
  H   H135      1.0  0.25689  0.41728  0.42689  1.0000
  H   H136      1.0  0.26798  0.37837  0.42547  1.0000
  H   H137      1.0  0.25751  0.34370  0.45656  1.0000
  H   H138      1.0  0.28102  0.36405  0.47746  1.0000
  H   H139      1.0  0.21389  0.34778  0.48979  1.0000
  H   H140      1.0  0.24260  0.36441  0.50998  1.0000
  H   H141      1.0  0.22059  0.37119  0.41348  1.0000
  H   H142      1.0  0.21305  0.34232  0.43661  1.0000
  H   H143      1.0  0.31238  0.39018  0.45392  1.0000
  H   H144      1.0  0.30176  0.42979  0.45423  1.0000
  H   H145      1.0  0.20417  0.43546  0.48538  1.0000
  H   H146      1.0  0.21273  0.40372  0.50480  1.0000
  H   H147      1.0  0.24866  0.43616  0.52926  1.0000
  H   H148      1.0  0.14597  0.00970  0.60466  1.0000
  H   H149      1.0  0.43787  0.03042  0.35590  1.0000
  C   C96       1.0  0.33564  0.03977  0.39970  1.0000
  H   H150      1.0  0.24502  0.30107  0.48505  1.0000
  C   C97       1.0  0.24665  0.06022  0.64796  1.0000
  H   H151      1.0  0.16973  0.34883  0.40837  1.0000
  H   H152      1.0  0.15902  0.35942  0.43959  1.0000
  H   H153      1.0  0.16718  0.38872  0.41665  1.0000
  H   H154      1.0  0.34211  0.42076  0.42353  1.0000
  H   H155      1.0  0.31924  0.39191  0.40817  1.0000
  H   H156      1.0  0.30759  0.43147  0.40810  1.0000
  H   H157      1.0  0.33243  0.08546  0.43627  1.0000
  H   H158      1.0  0.10572  0.41241  0.39435  1.0000
  H   H159      1.0  0.14617  0.44998  0.38430  1.0000
  H   H160      1.0  0.16049  0.03421  0.37534  1.0000
  C   C98       1.0  0.41505  0.02091  0.35100  1.0000
  C   C99       1.0  0.15372  0.00568  0.48032  1.0000
  H   H161      1.0  0.25424  0.28426  0.32890  1.0000
  H   H162      1.0  0.13211  0.16737  0.39154  1.0000
  H   H163      1.0  0.27533  0.48791  0.61387  1.0000
  H   H164      1.0  0.21118  0.45263  0.52820  1.0000
  H   H165      1.0  0.32959  0.05687  0.38535  1.0000
  H   H166      1.0  0.18831  0.17349  0.33889  1.0000
  H   H167      1.0  0.18105  0.99752  0.39891  1.0000
  H   H168      1.0  0.35793  0.04748  0.40735  1.0000
  Fe  Fe11      1.0  0.19813  0.07251  0.32866  1.0000
  H   H169      1.0  0.29348  0.07751  0.44573  1.0000
  H   H170      1.0  0.28981  0.03462  0.41661  1.0000
  H   H171      1.0  0.39234  0.04854  0.37791  1.0000
  H   H172      1.0  0.12014  0.40627  0.36342  1.0000
  H   H173      1.0  0.24993  0.46537  0.63355  1.0000
  H   H174      1.0  0.11400  0.05000  0.35193  1.0000
  C   C100      1.0  0.22597  0.47657  0.42917  1.0000
  C   C101      1.0  0.23584  0.02722  0.64362  1.0000
  H   H175      1.0  0.16188  0.01944  0.56192  1.0000
  N   N7        1.0  0.18698  0.99262  0.64458  1.0000
  H   H176      1.0  0.45706  0.46613  0.65188  1.0000
  H   H177      1.0  0.29915  0.01805  0.36518  1.0000
  H   H178      1.0  0.14106  0.13611  0.37098  1.0000
  C   C102      1.0  0.31289  0.04287  0.42164  1.0000
  H   H179      1.0  0.15893  0.02493  0.43181  1.0000
  C   C103      1.0  0.20184  0.02294  0.65113  1.0000
  H   H180      1.0  0.10166  0.07189  0.37868  1.0000
  C   C104      1.0  0.14296  0.18110  0.35384  1.0000
  H   H181      1.0  0.27236  0.47725  0.41570  1.0000
  H   H182      1.0  0.08361  0.42437  0.36815  1.0000
  C   C105      1.0  0.10714  0.42226  0.37543  1.0000
  H   H183      1.0  0.14678  0.05520  0.40197  1.0000
  H   H184      1.0  0.41769  0.99656  0.34549  1.0000
  H   H185      1.0  0.11865  0.17934  0.34845  1.0000
  H   H186      1.0  0.48062  0.45421  0.62596  1.0000
  H   H187      1.0  0.24152  0.46823  0.50918  1.0000
  C   C106      1.0  0.30793  0.99923  0.37689  1.0000
  H   H188      1.0  0.09815  0.02188  0.40141  1.0000
  S   S24       1.0  0.25642  0.17220  0.33959  1.0000
  C   C107      1.0  0.15379  0.99384  0.65259  1.0000
  H   H189      1.0  0.12004  0.01965  0.44102  1.0000
  H   H190      1.0  0.10204  0.46776  0.34271  1.0000
  C   C108      1.0  0.31003  0.07618  0.43003  1.0000
  H   H191      1.0  0.32112  0.02998  0.43786  1.0000
  H   H192      1.0  0.35174  0.02634  0.35197  1.0000
  C   C109      1.0  0.11980  0.01325  0.39308  1.0000
  C   C110      1.0  0.14720  0.16005  0.37601  1.0000
  C   C111      1.0  0.13973  0.04142  0.38564  1.0000
  H   H193      1.0  0.23607  0.30924  0.51705  1.0000
  H   H194      1.0  0.14308  0.01506  0.64563  1.0000
  H   H195      1.0  0.11313  0.00222  0.37534  1.0000
  H   H196      1.0  0.23998  0.02186  0.62379  1.0000
  H   H197      1.0  0.18873  0.04219  0.64333  1.0000
  H   H198      1.0  0.13659  0.08188  0.36265  1.0000
  Fe  Fe12      1.0  0.26777  0.05766  0.32981  1.0000
  H   H199      1.0  0.18238  0.48091  0.44771  1.0000
  H   H200      1.0  0.40638  0.03392  0.33493  1.0000
  C   C112      1.0  0.12546  0.46809  0.35033  1.0000
  C   C113      1.0  0.16447  0.17216  0.33192  1.0000
  H   H201      1.0  0.16853  0.02628  0.47773  1.0000
  H   H202      1.0  0.40296  0.01123  0.38899  1.0000
  C   C114      1.0  0.25170  0.48577  0.62140  1.0000
  H   H203      1.0  0.36596  0.99669  0.41938  1.0000
  H   H204      1.0  0.10990  0.46819  0.38934  1.0000
  H   H205      1.0  0.23584  0.48242  0.60562  1.0000
  H   H206      1.0  0.23309  0.99088  0.49837  1.0000
  C   C115      1.0  0.48087  0.46491  0.64467  1.0000
  H   H207      1.0  0.29016  0.99608  0.39139  1.0000
  H   H208      1.0  0.18342  0.47645  0.35044  1.0000
  H   H209      1.0  0.13064  0.01294  0.48643  1.0000
  N   N8        1.0  0.13401  0.99061  0.41045  1.0000
  C   C116      1.0  0.20638  0.48707  0.44818  1.0000
  H   H210      1.0  0.16368  0.99142  0.49512  1.0000
  H   H211      1.0  0.25028  0.01247  0.65524  1.0000
  H   H212      1.0  0.16000  0.14743  0.32809  1.0000
  H   H213      1.0  0.08481  0.05985  0.84538  1.0000
  H   H214      1.0  0.24767  0.27099  0.80079  1.0000
  S   S25       1.0  0.42928  0.05090  0.74089  1.0000
  S   S26       1.0  0.01546  0.48622  0.69346  1.0000
  C   C117      1.0  0.42834  0.09995  0.89303  1.0000
  S   S27       1.0  0.03792  0.02513  0.76431  1.0000
  C   C118      1.0  0.06671  0.00170  0.83303  1.0000
  H   H215      1.0  0.36766  0.16787  0.91585  1.0000
  S   S28       1.0  0.03890  0.41831  0.73553  1.0000
  Fe  Fe13      1.0  0.40644  0.20038  0.83496  1.0000
  S   S29       1.0  0.38041  0.20946  0.87069  1.0000
  S   S30       1.0  0.42215  0.15048  0.82913  1.0000
  Fe  Fe14      1.0  0.41130  0.26963  0.82365  1.0000
  S   S31       1.0  0.38688  0.28180  0.85906  1.0000
  S   S32       1.0  0.42206  0.30342  0.79184  1.0000
  Fe  Fe15      1.0  0.41573  0.24643  0.87785  1.0000
  S   S33       1.0  0.43120  0.25268  0.91862  1.0000
  Fe  Fe16      1.0  0.35323  0.24403  0.84949  1.0000
  S   S34       1.0  0.30362  0.26035  0.85591  1.0000
  S   S35       1.0  0.44266  0.23657  0.84287  1.0000
  S   S36       1.0  0.37684  0.23259  0.81332  1.0000
  Fe  Fe17      1.0  0.05249  0.20076  0.82208  1.0000
  S   S37       1.0  0.08193  0.18900  0.85427  1.0000
  S   S38       1.0  0.02520  0.16592  0.79839  1.0000
  Fe  Fe18      1.0  0.06124  0.27059  0.83201  1.0000
  S   S39       1.0  0.09097  0.26195  0.86545  1.0000
  S   S40       1.0  0.05084  0.32131  0.82404  1.0000
  Fe  Fe19      1.0  0.11417  0.22673  0.84132  1.0000
  S   S41       1.0  0.16518  0.21752  0.83290  1.0000
  Fe  Fe20      1.0  0.05610  0.22522  0.87584  1.0000
  S   S42       1.0  0.03727  0.20947  0.91415  1.0000
  S   S43       1.0  0.08566  0.23668  0.80766  1.0000
  S   S44       1.0  0.02545  0.23572  0.84385  1.0000
  H   H216      1.0  0.25343  0.31072  0.79245  1.0000
  H   H217      1.0  0.04798  0.35333  0.73585  1.0000
  S   S45       1.0  0.46028  0.44478  0.77710  1.0000
  C   C119      1.0  0.44774  0.40595  0.78119  1.0000
  C   C120      1.0  0.43291  0.38920  0.76256  1.0000
  C   C121      1.0  0.42491  0.35807  0.76633  1.0000
  C   C122      1.0  0.43108  0.34330  0.78888  1.0000
  C   C123      1.0  0.44525  0.36028  0.80772  1.0000
  C   C124      1.0  0.45360  0.39128  0.80384  1.0000
  H   H218      1.0  0.42826  0.39998  0.74501  1.0000
  H   H219      1.0  0.41417  0.34520  0.75152  1.0000
  H   H220      1.0  0.45065  0.34927  0.82501  1.0000
  S   S46       1.0  0.46791  0.48220  0.70790  1.0000
  C   C125      1.0  0.26538  0.24710  0.85003  1.0000
  C   C126      1.0  0.24067  0.26346  0.86025  1.0000
  C   C127      1.0  0.21000  0.25454  0.85568  1.0000
  C   C128      1.0  0.20345  0.22916  0.84057  1.0000
  C   C129      1.0  0.22815  0.21295  0.83023  1.0000
  C   C130      1.0  0.25882  0.22167  0.83501  1.0000
  H   H221      1.0  0.24533  0.28298  0.87207  1.0000
  H   H222      1.0  0.19145  0.26728  0.86387  1.0000
  H   H223      1.0  0.22354  0.19335  0.81844  1.0000
  H   H224      1.0  0.27737  0.20883  0.82689  1.0000
  H   H225      1.0  0.46619  0.35447  0.93326  1.0000
  C   C131      1.0  0.43172  0.16439  0.91137  1.0000
  H   H226      1.0  0.26237  0.28082  0.77055  1.0000
  C   C132      1.0  0.37188  0.43955  0.80247  1.0000
  H   H227      1.0  0.11288  0.32366  0.85651  1.0000
  H   H228      1.0  0.47514  0.16876  0.74227  1.0000
  C   C133      1.0  0.46100  0.24136  0.96261  1.0000
  C   C134      1.0  0.45272  0.11177  0.91166  1.0000
  H   H229      1.0  0.43836  0.24171  0.97081  1.0000
  H   H230      1.0  0.16106  0.00982  0.69129  1.0000
  C   C135      1.0  0.04274  0.39192  0.76050  1.0000
  C   C136      1.0  0.04691  0.36068  0.75501  1.0000
  C   C137      1.0  0.04907  0.33870  0.77406  1.0000
  C   C138      1.0  0.04783  0.34774  0.79898  1.0000
  C   C139      1.0  0.04381  0.37901  0.80443  1.0000
  C   C140      1.0  0.04120  0.40093  0.78539  1.0000
  C   C141      1.0  0.10461  0.04449  0.84292  1.0000
  H   H231      1.0  0.05130  0.31476  0.76942  1.0000
  H   H232      1.0  0.04266  0.38636  0.82359  1.0000
  H   H233      1.0  0.03812  0.42482  0.79000  1.0000
  C   C142      1.0  0.03407  0.06455  0.77303  1.0000
  C   C143      1.0  0.00982  0.08254  0.76525  1.0000
  C   C144      1.0  0.00772  0.11343  0.77306  1.0000
  C   C145      1.0  0.02982  0.12695  0.78868  1.0000
  C   C146      1.0  0.05408  0.10894  0.79649  1.0000
  C   C147      1.0  0.05612  0.07805  0.78871  1.0000
  H   H234      1.0  0.09789  0.12509  0.89831  1.0000
  H   H235      1.0  0.43770  0.18912  0.91125  1.0000
  H   H236      1.0  0.07143  0.11889  0.80832  1.0000
  H   H237      1.0  0.07525  0.06464  0.79453  1.0000
  C   C148      1.0  0.42710  0.07796  0.76590  1.0000
  C   C149      1.0  0.43685  0.07134  0.78991  1.0000
  C   C150      1.0  0.43523  0.09381  0.80885  1.0000
  C   C151      1.0  0.42379  0.12324  0.80420  1.0000
  C   C152      1.0  0.41422  0.12990  0.78016  1.0000
  C   C153      1.0  0.41587  0.10743  0.76122  1.0000
  H   H238      1.0  0.44546  0.04885  0.79393  1.0000
  H   H239      1.0  0.44267  0.08824  0.82731  1.0000
  H   H240      1.0  0.40536  0.15230  0.77617  1.0000
  H   H241      1.0  0.46792  0.36860  0.97752  1.0000
  H   H242      1.0  0.00630  0.40122  0.68677  1.0000
  H   H243      1.0  0.08509  0.09000  0.88393  1.0000
  H   H244      1.0  0.00723  0.07404  0.83078  1.0000
  H   H245      1.0  0.46067  0.14877  0.87050  1.0000
  H   H246      1.0  0.06819  0.01219  0.81426  1.0000
  H   H247      1.0  0.00372  0.16750  0.88614  1.0000
  H   H248      1.0  0.99003  0.08784  0.94047  1.0000
  H   H249      1.0  0.38540  0.20163  0.92947  1.0000
  C   C154      1.0  0.48658  0.23678  0.97796  1.0000
  H   H250      1.0  0.00294  0.26656  0.92270  1.0000
  H   H251      1.0  0.03230  0.09056  0.86396  1.0000
  H   H252      1.0  0.40478  0.13503  0.93719  1.0000
  H   H253      1.0  0.00226  0.99541  0.83547  1.0000
  H   H254      1.0  0.00571  0.16821  0.85377  1.0000
  H   H255      1.0  0.36639  0.43735  0.78246  1.0000
  H   H256      1.0  0.46509  0.40390  0.81840  1.0000
  H   H257      1.0  0.11354  0.04676  0.82366  1.0000
  H   H258      1.0  0.45635  0.14034  0.72328  1.0000
  H   H259      1.0  0.09150  0.12391  0.86540  1.0000
  H   H260      1.0  0.39628  0.43399  0.80516  1.0000
  C   C155      1.0  0.14721  0.99271  0.68098  1.0000
  H   H261      1.0  0.04730  0.01345  0.84214  1.0000
  H   H262      1.0  0.44509  0.10520  0.93066  1.0000
  Fe  Fe21      1.0  0.02652  0.46930  0.73202  1.0000
  H   H263      1.0  0.09032  0.00917  0.86823  1.0000
  H   H264      1.0  0.40645  0.05756  0.88132  1.0000
  N   N9        1.0  0.46029  0.14553  0.91043  1.0000
  Fe  Fe22      1.0  0.44309  0.00031  0.73753  1.0000
  C   C156      1.0  0.47993  0.15414  0.93227  1.0000
  C   C157      1.0  0.02931  0.11558  0.86631  1.0000
  C   C158      1.0  0.09537  0.01124  0.84808  1.0000
  C   C159      1.0  0.00997  0.22149  0.93719  1.0000
  C   C160      1.0  0.08308  0.11527  0.88358  1.0000
  C   C161      1.0  0.11359  0.99907  0.68664  1.0000
  H   H265      1.0  0.99264  0.07269  0.75321  1.0000
  H   H266      1.0  0.00363  0.13737  0.92010  1.0000
  N   N10       1.0  0.33870  0.36110  0.82567  1.0000
  C   C162      1.0  0.35381  0.38470  0.80913  1.0000
  C   C163      1.0  0.34438  0.32978  0.81486  1.0000
  C   C164      1.0  0.30497  0.36748  0.82730  1.0000
  C   C165      1.0  0.35165  0.36217  0.85153  1.0000
  C   C166      1.0  0.38703  0.36373  0.85327  1.0000
  C   C167      1.0  0.35145  0.41838  0.81810  1.0000
  C   C168      1.0  0.28492  0.34224  0.83985  1.0000
  C   C169      1.0  0.33109  0.32365  0.78869  1.0000
  C   C170      1.0  0.33354  0.28995  0.78147  1.0000
  C   C171      1.0  0.39743  0.36262  0.88022  1.0000
  C   C172      1.0  0.25154  0.35186  0.84164  1.0000
  H   H267      1.0  0.34355  0.38412  0.79036  1.0000
  H   H268      1.0  0.37828  0.37914  0.80588  1.0000
  H   H269      1.0  0.36922  0.32575  0.81325  1.0000
  H   H270      1.0  0.33595  0.31154  0.82765  1.0000
  H   H271      1.0  0.29554  0.37194  0.80860  1.0000
  H   H272      1.0  0.30106  0.38901  0.83791  1.0000
  H   H273      1.0  0.34255  0.38195  0.86222  1.0000
  H   H274      1.0  0.34396  0.34161  0.86216  1.0000
  H   H275      1.0  0.39636  0.38526  0.84523  1.0000
  H   H276      1.0  0.39757  0.34439  0.84322  1.0000
  C   C173      1.0  0.42406  0.06527  0.89477  1.0000
  H   H277      1.0  0.29292  0.33746  0.85888  1.0000
  H   H278      1.0  0.28551  0.32056  0.82909  1.0000
  H   H279      1.0  0.30671  0.32971  0.78767  1.0000
  H   H280      1.0  0.34402  0.33708  0.77455  1.0000
  H   H281      1.0  0.32336  0.28609  0.76293  1.0000
  H   H282      1.0  0.35787  0.28326  0.78046  1.0000
  H   H283      1.0  0.32120  0.27520  0.79511  1.0000
  H   H284      1.0  0.42278  0.36316  0.88081  1.0000
  H   H285      1.0  0.38871  0.38263  0.89074  1.0000
  H   H286      1.0  0.38921  0.34123  0.88929  1.0000
  H   H287      1.0  0.24931  0.37255  0.85353  1.0000
  H   H288      1.0  0.24241  0.35666  0.82295  1.0000
  H   H289      1.0  0.23763  0.33308  0.85003  1.0000
  H   H290      1.0  0.47363  0.09818  0.90814  1.0000
  H   H291      1.0  0.24374  0.06676  0.66776  1.0000
  H   H292      1.0  0.36853  0.46371  0.80824  1.0000
  C   C174      1.0  0.41075  0.15950  0.93442  1.0000
  N   N11       1.0  0.15908  0.30582  0.78782  1.0000
  C   C175      1.0  0.13911  0.30823  0.81070  1.0000
  C   C176      1.0  0.14673  0.28057  0.77133  1.0000
  C   C177      1.0  0.19035  0.29624  0.79624  1.0000
  C   C178      1.0  0.16198  0.33569  0.77382  1.0000
  C   C179      1.0  0.13414  0.35745  0.77508  1.0000
  C   C180      1.0  0.15166  0.32993  0.83129  1.0000
  C   C181      1.0  0.21386  0.28881  0.77542  1.0000
  C   C182      1.0  0.11493  0.28563  0.75996  1.0000
  C   C183      1.0  0.10493  0.25815  0.74418  1.0000
  C   C184      1.0  0.13663  0.38265  0.75561  1.0000
  C   C185      1.0  0.12622  0.34255  0.84781  1.0000
  C   C186      1.0  0.24630  0.28782  0.78551  1.0000
  H   H293      1.0  0.13586  0.28525  0.81934  1.0000
  H   H294      1.0  0.11564  0.31524  0.80602  1.0000
  H   H295      1.0  0.16208  0.27689  0.75512  1.0000
  H   H296      1.0  0.14602  0.25847  0.78166  1.0000
  H   H297      1.0  0.18835  0.27555  0.80815  1.0000
  H   H298      1.0  0.20092  0.31429  0.80811  1.0000
  H   H299      1.0  0.18183  0.34950  0.78056  1.0000
  H   H300      1.0  0.16728  0.33106  0.75392  1.0000
  H   H301      1.0  0.13273  0.36875  0.79349  1.0000
  H   H302      1.0  0.11223  0.34525  0.77222  1.0000
  H   H303      1.0  0.16758  0.31709  0.84321  1.0000
  H   H304      1.0  0.16458  0.34966  0.82341  1.0000
  H   H305      1.0  0.21348  0.30604  0.76041  1.0000
  H   H306      1.0  0.20873  0.26587  0.76736  1.0000
  H   H307      1.0  0.09742  0.28905  0.77459  1.0000
  H   H308      1.0  0.11556  0.30566  0.74743  1.0000
  H   H309      1.0  0.08148  0.26182  0.73720  1.0000
  H   H310      1.0  0.12056  0.25530  0.72802  1.0000
  H   H311      1.0  0.10473  0.23676  0.75520  1.0000
  H   H312      1.0  0.15787  0.39645  0.75816  1.0000
  H   H313      1.0  0.13641  0.37263  0.73665  1.0000
  H   H314      1.0  0.11673  0.39805  0.75746  1.0000
  H   H315      1.0  0.13623  0.35697  0.86275  1.0000
  H   H316      1.0  0.11053  0.35682  0.83684  1.0000
  H   H317      1.0  0.35833  0.42122  0.83769  1.0000
  Fe  Fe23      1.0  0.45143  0.48160  0.74771  1.0000
  H   H318      1.0  0.36671  0.17359  0.94893  1.0000
  H   H319      1.0  0.10893  0.99602  0.70677  1.0000
  H   H320      1.0  0.43701  0.33356  0.95017  1.0000
  H   H321      1.0  0.01162  0.17869  0.95681  1.0000
  C   C187      1.0  0.46437  0.24543  0.93680  1.0000
  H   H322      1.0  0.41800  0.16076  0.89430  1.0000
  H   H323      1.0  0.42216  0.16832  0.95136  1.0000
  H   H324      1.0  0.46819  0.14786  0.94993  1.0000
  H   H325      1.0  0.03911  0.12644  0.84926  1.0000
  H   H326      1.0  0.40818  0.11291  0.74279  1.0000
  H   H327      1.0  0.04977  0.14945  0.89189  1.0000
  H   H328      1.0  0.40580  0.11036  0.89682  1.0000
  H   H329      1.0  0.12294  0.05187  0.85583  1.0000
  C   C188      1.0  0.38085  0.17674  0.93192  1.0000
  H   H330      1.0  0.48319  0.17942  0.93340  1.0000
  H   H331      1.0  0.44573  0.05351  0.89017  1.0000
  H   H332      1.0  0.41632  0.05863  0.91369  1.0000
  H   H333      1.0  0.32757  0.42628  0.81638  1.0000
  H   H334      1.0  0.04250  0.11226  0.90540  1.0000
  C   C189      1.0  0.04997  0.12448  0.88840  1.0000
  H   H335      1.0  0.43511  0.10533  0.87366  1.0000
  C   C190      1.0  0.47666  0.15178  0.88619  1.0000
  C   C191      1.0  0.47899  0.14949  0.72914  1.0000
  H   H336      1.0  0.47345  0.20202  0.88470  1.0000
  C   C192      1.0  0.46207  0.33661  0.94752  1.0000
  H   H337      1.0  0.11532  0.99680  0.84375  1.0000
  H   H338      1.0  0.20100  0.02679  0.67149  1.0000
  C   C193      1.0  0.99691  0.25057  0.93725  1.0000
  C   C194      1.0  0.47731  0.34617  0.97182  1.0000
  H   H339      1.0  0.10787  0.02289  0.68156  1.0000
  H   H340      1.0  0.47170  0.31476  0.94053  1.0000
  H   H341      1.0  0.47832  0.29926  0.98459  1.0000
  H   H342      1.0  0.48424  0.11823  0.75897  1.0000
  C   C195      1.0  0.00168  0.20118  0.95645  1.0000
  H   H343      1.0  0.47808  0.08537  0.72272  1.0000
  H   H344      1.0  0.99298  0.08553  0.89463  1.0000
  C   C196      1.0  0.99279  0.15760  0.86951  1.0000
  N   N12       1.0  0.99588  0.12326  0.86882  1.0000
  H   H345      1.0  0.98881  0.12699  0.76687  1.0000
  H   H346      1.0  0.43330  0.63802  0.03133  1.0000
  C   C197      1.0  0.45269  0.71125  0.13103  1.0000
  H   H347      1.0  0.46080  0.69259  0.14310  1.0000
  C   C198      1.0  0.45626  0.75273  0.01031  1.0000
  C   C199      1.0  0.46083  0.88767  0.24463  1.0000
  H   H348      1.0  0.43591  0.76313  0.01789  1.0000
  N   N13       1.0  0.46613  0.66431  0.07047  1.0000
  H   H349      1.0  0.09752  0.51182  0.26854  1.0000
  H   H350      1.0  0.43217  0.72140  0.13986  1.0000
  C   C200      1.0  0.06176  0.79201  0.01026  1.0000
  C   C201      1.0  0.11364  0.50320  0.30569  1.0000
  C   C202      1.0  0.44457  0.69867  0.10543  1.0000
  H   H351      1.0  0.16111  0.49913  0.31271  1.0000
  H   H352      1.0  0.38776  0.67079  0.02769  1.0000
  H   H353      1.0  0.11852  0.78102  0.99745  1.0000
  H   H354      1.0  0.14181  0.71091  0.05982  1.0000
  C   C203      1.0  0.45315  0.58991  0.11010  1.0000
  H   H355      1.0  0.16187  0.74626  0.06646  1.0000
  C   C204      1.0  0.14155  0.51030  0.32244  1.0000
  C   C205      1.0  0.45259  0.63427  0.07955  1.0000
  H   H356      1.0  0.48529  0.87294  0.17631  1.0000
  C   C206      1.0  0.00097  0.94643  0.12384  1.0000
  H   H357      1.0  0.40548  0.66489  0.99777  1.0000
  H   H358      1.0  0.00602  0.94906  0.14390  1.0000
  H   H359      1.0  0.45143  0.70314  0.04897  1.0000
  H   H360      1.0  0.07481  0.74585  0.01871  1.0000
  C   C207      1.0  0.99536  0.97765  0.11213  1.0000
  H   H361      1.0  0.46441  0.57445  0.09652  1.0000
  H   H362      1.0  0.03914  0.78917  0.01956  1.0000
  H   H363      1.0  0.45630  0.66668  0.01551  1.0000
  H   H364      1.0  0.42685  0.68051  0.10787  1.0000
  C   C208      1.0  0.14097  0.74464  0.03015  1.0000
  H   H365      1.0  0.45731  0.61575  0.06583  1.0000
  H   H366      1.0  0.46109  0.88753  0.22402  1.0000
  H   H367      1.0  0.07777  0.80302  0.02354  1.0000
  C   C209      1.0  0.11748  0.51797  0.28022  1.0000
  H   H368      1.0  0.45243  0.63727  0.12039  1.0000
  C   C210      1.0  0.40848  0.67569  0.01629  1.0000
  H   H369      1.0  0.17866  0.71890  0.04548  1.0000
  H   H370      1.0  0.11886  0.54329  0.28195  1.0000
  C   C211      1.0  0.46286  0.62313  0.10551  1.0000
  H   H371      1.0  0.42720  0.63531  0.08060  1.0000
  C   C212      1.0  0.15680  0.72910  0.05175  1.0000
  C   C213      1.0  0.13244  0.72108  0.00956  1.0000
  H   H372      1.0  0.46018  0.58303  0.12900  1.0000
  H   H373      1.0  0.42113  0.68217  0.06325  1.0000
  H   H374      1.0  0.15253  0.70618  0.00632  1.0000
  H   H375      1.0  0.15626  0.76314  0.02329  1.0000
  C   C214      1.0  0.47304  0.68654  0.09126  1.0000
  C   C215      1.0  0.44351  0.67949  0.05359  1.0000
  H   H376      1.0  0.24385  0.50077  0.26147  1.0000
  H   H377      1.0  0.09058  0.98378  0.29523  1.0000
  H   H378      1.0  0.12016  0.75560  0.03772  1.0000
  H   H379      1.0  0.41088  0.70081  0.01364  1.0000
  H   H380      1.0  0.05896  0.80704  0.99391  1.0000
  H   H381      1.0  0.09182  0.51084  0.31373  1.0000
  H   H382      1.0  0.48220  0.75917  0.04410  1.0000
  H   H383      1.0  0.43431  0.71753  0.09470  1.0000
  H   H384      1.0  0.11470  0.70573  0.01805  1.0000
  C   C216      1.0  0.48254  0.75046  0.02530  1.0000
  H   H385      1.0  0.42796  0.58716  0.10876  1.0000
  H   H386      1.0  0.14623  0.53540  0.32174  1.0000
  H   H387      1.0  0.47074  0.72927  0.12957  1.0000
  C   C217      1.0  0.43688  0.66297  0.02864  1.0000
  H   H388      1.0  0.44498  0.90578  0.25098  1.0000
  H   H389      1.0  0.45211  0.86522  0.25143  1.0000
  H   H390      1.0  0.02076  0.93539  0.11462  1.0000
  H   H391      1.0  0.36356  0.49553  0.27833  1.0000
  H   H392      1.0  0.13840  0.50947  0.27079  1.0000
  H   H393      1.0  0.35080  0.98811  0.29141  1.0000
  C   C218      1.0  0.07340  0.76070  0.00216  1.0000
  H   H394      1.0  0.48784  0.62468  0.10786  1.0000
  H   H395      1.0  0.48568  0.70695  0.08390  1.0000
  H   H396      1.0  0.99147  0.97384  0.09201  1.0000
  Fe  Fe24      1.0  0.24085  0.91206  0.52751  1.0000
  S   S47       1.0  0.20713  0.87481  0.53925  1.0000
  S   S48       1.0  0.24458  0.92591  0.48595  1.0000
  Fe  Fe25      1.0  0.26539  0.91834  0.58108  1.0000
  S   S49       1.0  0.23298  0.88268  0.59628  1.0000
  S   S50       1.0  0.29553  0.94877  0.60574  1.0000
  Fe  Fe26      1.0  0.24469  0.85497  0.56210  1.0000
  S   S51       1.0  0.25637  0.80481  0.57039  1.0000
  Fe  Fe27      1.0  0.19758  0.90445  0.57272  1.0000
  S   S52       1.0  0.14813  0.91329  0.58405  1.0000
  S   S53       1.0  0.27964  0.88977  0.54815  1.0000
  S   S54       1.0  0.22877  0.94261  0.55971  1.0000
  Fe  Fe28      1.0  0.24772  0.55984  0.52994  1.0000
  S   S55       1.0  0.20174  0.57869  0.54076  1.0000
  S   S56       1.0  0.26416  0.53671  0.49352  1.0000
  Fe  Fe29      1.0  0.27643  0.58224  0.57941  1.0000
  S   S57       1.0  0.23233  0.60246  0.59343  1.0000
  S   S58       1.0  0.31928  0.59060  0.60262  1.0000
  Fe  Fe30      1.0  0.21027  0.55931  0.57881  1.0000
  S   S59       1.0  0.17732  0.52787  0.60032  1.0000
  Fe  Fe31      1.0  0.22720  0.62088  0.55482  1.0000
  S   S60       1.0  0.20917  0.66864  0.54513  1.0000
  S   S61       1.0  0.25494  0.53782  0.56720  1.0000
  S   S62       1.0  0.27262  0.60338  0.54151  1.0000
  C   C219      1.0  0.34032  0.56366  0.61985  1.0000
  C   C220      1.0  0.33671  0.53210  0.61638  1.0000
  C   C221      1.0  0.32534  0.67993  0.52744  1.0000
  H   H397      1.0  0.34487  0.68078  0.43562  1.0000
  H   H398      1.0  0.26896  0.63359  0.63604  1.0000
  H   H399      1.0  0.32097  0.52351  0.60258  1.0000
  H   H400      1.0  0.26325  0.91640  0.65223  1.0000
  C   C222      1.0  0.26803  0.50321  0.44991  1.0000
  H   H401      1.0  0.08609  0.54149  0.34462  1.0000
  H   H402      1.0  0.08580  0.56624  0.38615  1.0000
  C   C223      1.0  0.14494  0.56725  0.63141  1.0000
  C   C224      1.0  0.14930  0.53722  0.62314  1.0000
  H   H403      1.0  0.36323  0.96739  0.39682  1.0000
  C   C225      1.0  0.33936  0.95093  0.44367  1.0000
  H   H404      1.0  0.35085  0.65126  0.48692  1.0000
  H   H405      1.0  0.15875  0.58564  0.62371  1.0000
  C   C226      1.0  0.32337  0.93765  0.62772  1.0000
  H   H406      1.0  0.14898  0.82395  0.52471  1.0000
  H   H407      1.0  0.35649  0.93433  0.43680  1.0000
  H   H408      1.0  0.17482  0.97808  0.45225  1.0000
  H   H409      1.0  0.14609  0.78715  0.55947  1.0000
  C   C227      1.0  0.33032  0.90696  0.63191  1.0000
  H   H410      1.0  0.23928  0.98172  0.40659  1.0000
  H   H411      1.0  0.39758  0.58346  0.58638  1.0000
  H   H412      1.0  0.31864  0.88917  0.62153  1.0000
  C   C228      1.0  0.13307  0.91416  0.61466  1.0000
  C   C229      1.0  0.10285  0.92366  0.61858  1.0000
  H   H413      1.0  0.26500  0.95057  0.37361  1.0000
  C   C230      1.0  0.36104  0.57444  0.63778  1.0000
  H   H414      1.0  0.48502  0.61452  0.63408  1.0000
  C   C231      1.0  0.15038  0.90559  0.63505  1.0000
  H   H415      1.0  0.08825  0.90610  0.40348  1.0000
  C   C232      1.0  0.15130  0.81153  0.56356  1.0000
  H   H416      1.0  0.17363  0.89817  0.63230  1.0000
  C   C233      1.0  0.24161  0.76745  0.56363  1.0000
  C   C234      1.0  0.22001  0.76179  0.54514  1.0000
  C   C235      1.0  0.21028  0.73148  0.53985  1.0000
  C   C236      1.0  0.22179  0.70645  0.55302  1.0000
  C   C237      1.0  0.24280  0.71221  0.57189  1.0000
  C   C238      1.0  0.25282  0.74244  0.57697  1.0000
  H   H417      1.0  0.21120  0.78068  0.53463  1.0000
  H   H418      1.0  0.19384  0.72736  0.52531  1.0000
  H   H419      1.0  0.25138  0.69336  0.58259  1.0000
  H   H420      1.0  0.26948  0.74646  0.59135  1.0000
  H   H421      1.0  0.28317  0.65487  0.49935  1.0000
  C   C239      1.0  0.24221  0.95797  0.44170  1.0000
  C   C240      1.0  0.24019  0.95997  0.46780  1.0000
  H   H422      1.0  0.25375  0.57776  0.64102  1.0000
  H   H423      1.0  0.24655  0.93599  0.43316  1.0000
  C   C241      1.0  0.24301  0.51467  0.63571  1.0000
  C   C242      1.0  0.13764  0.83008  0.54252  1.0000
  C   C243      1.0  0.24847  0.51370  0.46897  1.0000
  H   H424      1.0  0.20037  0.52544  0.33323  1.0000
  H   H425      1.0  0.30739  0.98300  0.42987  1.0000
  H   H426      1.0  0.08916  0.79727  0.62840  1.0000
  H   H427      1.0  0.33361  0.64012  0.56648  1.0000
  C   C244      1.0  0.22912  0.95065  0.64514  1.0000
  H   H428      1.0  0.32125  0.93818  0.45409  1.0000
  C   C245      1.0  0.27618  0.95735  0.35588  1.0000
  H   H429      1.0  0.19271  0.94107  0.34806  1.0000
  C   C246      1.0  0.16231  0.96188  0.37511  1.0000
  H   H430      1.0  0.43176  0.60601  0.58100  1.0000
  H   H431      1.0  0.13422  0.49030  0.62716  1.0000
  C   C247      1.0  0.17224  0.49705  0.35847  1.0000
  H   H432      1.0  0.11278  0.82513  0.54090  1.0000
  C   C248      1.0  0.33766  0.66493  0.47358  1.0000
  C   C249      1.0  0.26434  0.52005  0.65815  1.0000
  H   H433      1.0  0.23529  0.50059  0.36371  1.0000
  H   H434      1.0  0.29181  0.57267  0.64987  1.0000
  C   C250      1.0  0.31012  0.68063  0.55355  1.0000
  H   H435      1.0  0.30708  0.70436  0.56040  1.0000
  H   H436      1.0  0.32769  0.65526  0.52270  1.0000
  H   H437      1.0  0.07566  0.52981  0.40013  1.0000
  H   H438      1.0  0.28808  0.52007  0.65063  1.0000
  C   C251      1.0  0.15383  0.71732  0.59711  1.0000
  C   C252      1.0  0.14207  0.77155  0.61137  1.0000
  H   H439      1.0  0.19279  0.82171  0.65249  1.0000
  H   H440      1.0  0.12008  0.76712  0.60167  1.0000
  H   H441      1.0  0.20207  0.51317  0.48235  1.0000
  C   C253      1.0  0.33890  0.96044  0.64144  1.0000
  H   H442      1.0  0.16620  0.97947  0.56887  1.0000
  H   H443      1.0  0.24438  0.53410  0.62263  1.0000
  C   C254      1.0  0.11174  0.96457  0.41600  1.0000
  H   H444      1.0  0.24657  0.96712  0.63838  1.0000
  H   H445      1.0  0.28751  0.66894  0.55330  1.0000
  H   H446      1.0  0.07158  0.97299  0.39303  1.0000
  H   H447      1.0  0.17635  0.81553  0.56310  1.0000
  H   H448      1.0  0.13809  0.76296  0.63056  1.0000
  H   H449      1.0  0.12688  0.51645  0.38540  1.0000
  H   H450      1.0  0.14109  0.85501  0.54581  1.0000
  H   H451      1.0  0.21890  0.51172  0.64179  1.0000
  H   H452      1.0  0.18682  0.74896  0.61178  1.0000
  H   H453      1.0  0.20449  0.93664  0.37979  1.0000
  H   H454      1.0  0.42725  0.56869  0.56651  1.0000
  C   C255      1.0  0.16378  0.97865  0.40037  1.0000
  H   H455      1.0  0.15251  0.97656  0.36057  1.0000
  C   C256      1.0  0.07436  0.54371  0.38299  1.0000
  H   H456      1.0  0.35194  0.67607  0.57484  1.0000
  H   H457      1.0  0.45893  0.56544  0.65342  1.0000
  H   H458      1.0  0.34900  0.68936  0.52941  1.0000
  C   C257      1.0  0.23830  0.98398  0.42651  1.0000
  H   H459      1.0  0.31298  0.95054  0.41051  1.0000
  H   H460      1.0  0.18753  0.83742  0.61055  1.0000
  H   H461      1.0  0.20918  0.97313  0.36448  1.0000
  C   C258      1.0  0.07199  0.92526  0.40195  1.0000
  H   H462      1.0  0.21869  0.52355  0.38815  1.0000
  H   H463      1.0  0.23947  0.78362  0.62311  1.0000
  H   H464      1.0  0.08926  0.93032  0.60290  1.0000
  N   N14       1.0  0.13991  0.49963  0.34907  1.0000
  H   H465      1.0  0.17373  0.96210  0.41352  1.0000
  H   H466      1.0  0.05931  0.92786  0.41975  1.0000
  H   H467      1.0  0.18345  0.54678  0.35823  1.0000
  H   H468      1.0  0.24252  0.82437  0.62875  1.0000
  H   H469      1.0  0.12435  0.94383  0.42178  1.0000
  C   C259      1.0  0.08922  0.52692  0.36116  1.0000
  H   H470      1.0  0.31677  0.65184  0.46839  1.0000
  H   H471      1.0  0.31874  0.97505  0.34211  1.0000
  C   C260      1.0  0.23289  0.80243  0.63591  1.0000
  H   H472      1.0  0.19619  0.80131  0.59813  1.0000
  H   H473      1.0  0.23927  0.54167  0.36302  1.0000
  H   H474      1.0  0.09044  0.83741  0.62047  1.0000
  H   H475      1.0  0.37903  0.68073  0.45437  1.0000
  C   C261      1.0  0.35737  0.66828  0.45018  1.0000
  C   C262      1.0  0.19417  0.95263  0.36640  1.0000
  C   C263      1.0  0.30834  0.96986  0.36049  1.0000
  H   H476      1.0  0.13626  0.96731  0.45996  1.0000
  H   H477      1.0  0.04990  0.54767  0.37896  1.0000
  C   C264      1.0  0.35384  0.51159  0.63060  1.0000
  C   C265      1.0  0.42273  0.58234  0.58354  1.0000
  C   C266      1.0  0.47245  0.56530  0.60286  1.0000
  H   H478      1.0  0.35046  0.96740  0.45663  1.0000
  H   H479      1.0  0.17728  0.96380  0.61297  1.0000
  C   C267      1.0  0.21749  0.50541  0.46793  1.0000
  C   C268      1.0  0.13103  0.51361  0.63339  1.0000
  H   H480      1.0  0.31756  0.66355  0.59068  1.0000
  H   H481      1.0  0.17415  0.75769  0.58140  1.0000
  C   C269      1.0  0.34965  0.98539  0.40638  1.0000
  C   C270      1.0  0.32505  0.96785  0.42207  1.0000
  C   C271      1.0  0.22359  0.52240  0.36792  1.0000
  H   H482      1.0  0.42638  0.54446  0.60811  1.0000
  H   H483      1.0  0.13979  0.84625  0.59067  1.0000
  H   H484      1.0  0.17210  0.49356  0.37889  1.0000
  H   H485      1.0  0.26234  0.97487  0.34649  1.0000
  C   C272      1.0  0.09006  0.92482  0.64265  1.0000
  H   H486      1.0  0.36306  0.64524  0.44282  1.0000
  H   H487      1.0  0.14181  0.84416  0.63608  1.0000
  C   C273      1.0  0.10840  0.51990  0.65147  1.0000
  H   H488      1.0  0.11223  0.81626  0.58696  1.0000
  N   N15       1.0  0.30886  0.69659  0.50714  1.0000
  C   C274      1.0  0.32956  0.69673  0.48457  1.0000
  C   C275      1.0  0.30302  0.72901  0.51600  1.0000
  C   C276      1.0  0.27918  0.67971  0.50237  1.0000
  C   C277      1.0  0.25948  0.69178  0.48098  1.0000
  H   H489      1.0  0.05532  0.91947  0.38719  1.0000
  C   C278      1.0  0.30184  0.75450  0.49606  1.0000
  C   C279      1.0  0.29095  0.78473  0.50717  1.0000
  C   C280      1.0  0.23306  0.66969  0.47527  1.0000
  H   H490      1.0  0.35140  0.70890  0.48902  1.0000
  H   H491      1.0  0.31962  0.70989  0.46919  1.0000
  H   H492      1.0  0.28144  0.72982  0.52711  1.0000
  H   H493      1.0  0.32134  0.73687  0.52887  1.0000
  H   H494      1.0  0.26430  0.68051  0.51906  1.0000
  H   H495      1.0  0.27284  0.69466  0.46361  1.0000
  H   H496      1.0  0.24934  0.71398  0.48646  1.0000
  C   C281      1.0  0.35276  0.89929  0.64937  1.0000
  C   C282      1.0  0.16637  0.74998  0.59985  1.0000
  H   H497      1.0  0.32509  0.75870  0.48824  1.0000
  H   H498      1.0  0.28647  0.74835  0.48061  1.0000
  H   H499      1.0  0.26671  0.78267  0.51312  1.0000
  H   H500      1.0  0.30501  0.79160  0.52337  1.0000
  H   H501      1.0  0.29273  0.80310  0.49305  1.0000
  H   H502      1.0  0.21911  0.67900  0.46004  1.0000
  H   H503      1.0  0.24178  0.64700  0.46940  1.0000
  H   H504      1.0  0.21804  0.66665  0.49179  1.0000
  C   C283      1.0  0.19404  0.52473  0.35321  1.0000
  H   H505      1.0  0.33372  0.98424  0.63839  1.0000
  N   N16       1.0  0.14944  0.80553  0.61158  1.0000
  C   C284      1.0  0.18320  0.81249  0.61333  1.0000
  C   C285      1.0  0.13714  0.82089  0.58880  1.0000
  C   C286      1.0  0.32961  0.66410  0.57247  1.0000
  C   C287      1.0  0.37440  0.52235  0.64865  1.0000
  H   H506      1.0  0.14608  0.70820  0.61532  1.0000
  C   C288      1.0  0.12231  0.57353  0.64948  1.0000
  H   H507      1.0  0.06682  0.93232  0.64541  1.0000
  C   C289      1.0  0.12373  0.52241  0.36554  1.0000
  H   H508      1.0  0.22079  0.93732  0.62892  1.0000
  H   H509      1.0  0.32196  0.95155  0.36898  1.0000
  H   H510      1.0  0.45342  0.51810  0.63413  1.0000
  H   H511      1.0  0.09675  0.97055  0.43210  1.0000
  H   H512      1.0  0.17202  0.70223  0.58973  1.0000
  H   H513      1.0  0.13451  0.71662  0.58392  1.0000
  C   C290      1.0  0.37782  0.55394  0.65225  1.0000
  C   C291      1.0  0.13405  0.81995  0.63389  1.0000
  H   H514      1.0  0.29202  0.50945  0.45039  1.0000
  C   C292      1.0  0.09861  0.82003  0.63375  1.0000
  H   H515      1.0  0.13439  0.54550  0.36369  1.0000
  C   C293      1.0  0.48351  0.56708  0.64819  1.0000
  H   H516      1.0  0.14864  0.94046  0.37687  1.0000
  H   H517      1.0  0.07660  0.50500  0.35871  1.0000
  H   H518      1.0  0.30586  0.62800  0.64994  1.0000
  H   H519      1.0  0.35811  0.87550  0.65228  1.0000
  H   H520      1.0  0.36392  0.59882  0.64066  1.0000
  H   H521      1.0  0.11894  0.59687  0.65557  1.0000
  C   C294      1.0  0.19816  0.80399  0.63830  1.0000
  H   H522      1.0  0.27735  0.93690  0.34363  1.0000
  H   H523      1.0  0.43120  0.58157  0.62246  1.0000
  H   H524      1.0  0.48088  0.58893  0.59933  1.0000
  H   H525      1.0  0.14062  0.97446  0.64415  1.0000
  C   C295      1.0  0.15176  0.98708  0.45630  1.0000
  C   C296      1.0  0.43721  0.56742  0.60605  1.0000
  H   H526      1.0  0.18946  0.78164  0.64526  1.0000
  H   H527      1.0  0.21137  0.98528  0.60966  1.0000
  H   H528      1.0  0.47713  0.55245  0.58535  1.0000
  H   H529      1.0  0.14090  0.80823  0.65121  1.0000
  H   H530      1.0  0.24298  0.79795  0.65432  1.0000
  C   C297      1.0  0.26852  0.57595  0.65754  1.0000
  C   C298      1.0  0.28138  0.63257  0.65387  1.0000
  C   C299      1.0  0.08897  0.95495  0.39531  1.0000
  C   C300      1.0  0.18766  0.98670  0.61694  1.0000
  C   C301      1.0  0.47721  0.51827  0.62657  1.0000
  H   H531      1.0  0.47597  0.50694  0.60803  1.0000
  H   H532      1.0  0.10032  0.95153  0.37713  1.0000
  C   C302      1.0  0.23460  0.98870  0.47841  1.0000
  H   H533      1.0  0.36449  0.98861  0.35770  1.0000
  C   C303      1.0  0.20195  0.96671  0.65825  1.0000
  H   H534      1.0  0.06032  0.82984  0.65827  1.0000
  Fe  Fe32      1.0  0.06467  0.71248  0.85905  1.0000
  S   S63       1.0  0.03270  0.74674  0.87637  1.0000
  S   S64       1.0  0.05819  0.68831  0.82170  1.0000
  Fe  Fe33      1.0  0.11789  0.72996  0.89420  1.0000
  S   S65       1.0  0.08983  0.76568  0.91398  1.0000
  S   S66       1.0  0.16446  0.71114  0.90556  1.0000
  Fe  Fe34      1.0  0.05072  0.73133  0.91359  1.0000
  S   S67       1.0  0.02375  0.71367  0.94794  1.0000
  Fe  Fe35      1.0  0.07348  0.77881  0.87572  1.0000
  S   S68       1.0  0.07631  0.82735  0.86021  1.0000
  S   S69       1.0  0.07988  0.69469  0.89577  1.0000
  S   S70       1.0  0.10437  0.74554  0.85646  1.0000
  Fe  Fe36      1.0  0.40078  0.69182  0.88290  1.0000
  S   S71       1.0  0.43823  0.72345  0.89601  1.0000
  S   S72       1.0  0.41728  0.64489  0.87050  1.0000
  Fe  Fe37      1.0  0.35122  0.73972  0.89141  1.0000
  S   S73       1.0  0.38600  0.77489  0.90474  1.0000
  S   S74       1.0  0.30247  0.75653  0.88382  1.0000
  Fe  Fe38      1.0  0.41550  0.75915  0.87294  1.0000
  S   S75       1.0  0.44795  0.78402  0.84611  1.0000
  Fe  Fe39      1.0  0.40676  0.73661  0.92710  1.0000
  S   S76       1.0  0.42156  0.74444  0.96795  1.0000
  S   S77       1.0  0.37994  0.72656  0.85807  1.0000
  S   S78       1.0  0.36993  0.70238  0.91569  1.0000
  Fe  Fe40      1.0  0.45008  0.93762  0.76264  1.0000
  S   S79       1.0  0.43930  0.91806  0.80110  1.0000
  Fe  Fe41      1.0  0.42812  0.94045  0.70902  1.0000
  H   H535      1.0  0.37409  0.76758  0.79443  1.0000
  H   H536      1.0  0.36712  0.72689  0.79431  1.0000
  N   N17       1.0  0.06050  0.96772  0.83099  1.0000
  H   H537      1.0  0.27211  0.52550  0.70648  1.0000
  H   H538      1.0  0.10768  0.92556  0.77370  1.0000
  H   H539      1.0  0.09461  0.85114  0.66536  1.0000
  Fe  Fe42      1.0  0.04598  0.93406  0.70723  1.0000
  S   S80       1.0  0.09256  0.91703  0.69376  1.0000
  H   H540      1.0  0.05875  0.58988  0.90565  1.0000
  S   S81       1.0  0.04503  0.94375  0.74814  1.0000
  S   S82       1.0  0.00319  0.90500  0.70936  1.0000
  Fe  Fe43      1.0  0.01284  0.53236  0.75524  1.0000
  H   H541      1.0  0.40062  0.83608  0.93630  1.0000
  Fe  Fe44      1.0  0.04225  0.52879  0.70411  1.0000
  H   H542      1.0  0.24376  0.61406  0.67489  1.0000
  H   H543      1.0  0.42633  0.81123  0.72805  1.0000
  H   H544      1.0  0.05390  0.62712  0.89219  1.0000
  Fe  Fe45      1.0  0.42985  0.54829  0.74544  1.0000
  S   S83       1.0  0.40448  0.58908  0.76158  1.0000
  Fe  Fe46      1.0  0.42416  0.50718  0.69994  1.0000
  H   H545      1.0  0.44248  0.57231  0.80371  1.0000
  Fe  Fe47      1.0  0.01791  0.98594  0.73988  1.0000
  S   S84       1.0  0.44507  0.55354  0.70577  1.0000
  C   C304      1.0  0.31262  0.54854  0.69295  1.0000
  H   H546      1.0  0.14015  0.93829  0.79183  1.0000
  H   H547      1.0  0.40179  0.81485  0.96480  1.0000
  H   H548      1.0  0.47511  0.81144  0.80294  1.0000
  C   C305      1.0  0.44286  0.82037  0.83246  1.0000
  C   C306      1.0  0.42388  0.84229  0.84320  1.0000
  C   C307      1.0  0.42294  0.87199  0.83320  1.0000
  C   C308      1.0  0.44029  0.87986  0.81202  1.0000
  C   C309      1.0  0.45859  0.85765  0.80087  1.0000
  C   C310      1.0  0.46008  0.82814  0.81120  1.0000
  H   H549      1.0  0.41070  0.83670  0.85967  1.0000
  H   H550      1.0  0.40883  0.88908  0.84203  1.0000
  H   H551      1.0  0.48264  0.71916  0.95765  1.0000
  S   S85       1.0  0.02151  0.97759  0.69839  1.0000
  C   C311      1.0  0.41373  0.62988  0.84005  1.0000
  C   C312      1.0  0.39365  0.64236  0.82296  1.0000
  C   C313      1.0  0.39105  0.62947  0.79907  1.0000
  C   C314      1.0  0.40856  0.60413  0.79196  1.0000
  C   C315      1.0  0.42890  0.59183  0.80894  1.0000
  C   C316      1.0  0.43134  0.60460  0.83291  1.0000
  H   H552      1.0  0.37977  0.66162  0.82830  1.0000
  H   H553      1.0  0.37518  0.63905  0.78607  1.0000
  H   H554      1.0  0.32047  0.52933  0.68111  1.0000
  H   H555      1.0  0.30092  0.85931  0.73469  1.0000
  C   C317      1.0  0.05169  0.84149  0.83716  1.0000
  C   C318      1.0  0.06394  0.85845  0.81720  1.0000
  C   C319      1.0  0.04470  0.87171  0.79953  1.0000
  C   C320      1.0  0.01297  0.86844  0.80186  1.0000
  C   C321      1.0  0.00078  0.85156  0.82181  1.0000
  C   C322      1.0  0.01999  0.83820  0.83939  1.0000
  H   H556      1.0  0.08844  0.86146  0.81550  1.0000
  H   H557      1.0  0.05438  0.88451  0.78417  1.0000
  C   C323      1.0  0.31350  0.81766  0.81430  1.0000
  H   H558      1.0  0.01026  0.82600  0.85504  1.0000
  C   C324      1.0  0.04286  0.65173  0.81420  1.0000
  C   C325      1.0  0.04536  0.64128  0.78958  1.0000
  C   C326      1.0  0.03443  0.61200  0.78271  1.0000
  C   C327      1.0  0.02102  0.59279  0.80050  1.0000
  C   C328      1.0  0.01822  0.60337  0.82508  1.0000
  C   C329      1.0  0.02904  0.63273  0.83192  1.0000
  H   H559      1.0  0.05633  0.65568  0.77582  1.0000
  H   H560      1.0  0.03659  0.60419  0.76372  1.0000
  H   H561      1.0  0.02675  0.64057  0.85089  1.0000
  C   C330      1.0  0.20263  0.72371  0.89857  1.0000
  C   C331      1.0  0.20903  0.75075  0.88561  1.0000
  C   C332      1.0  0.23963  0.76022  0.88127  1.0000
  C   C333      1.0  0.26434  0.74289  0.88971  1.0000
  C   C334      1.0  0.25791  0.71573  0.90254  1.0000
  C   C335      1.0  0.22730  0.70627  0.90693  1.0000
  H   H562      1.0  0.19045  0.76456  0.87915  1.0000
  H   H563      1.0  0.24422  0.78129  0.87138  1.0000
  H   H564      1.0  0.27654  0.70212  0.90921  1.0000
  H   H565      1.0  0.22275  0.68538  0.91706  1.0000
  H   H566      1.0  0.43667  0.79218  0.93438  1.0000
  N   N18       1.0  0.02046  0.75993  0.78262  1.0000
  C   C336      1.0  0.17278  0.76208  0.97499  1.0000
  C   C337      1.0  0.03056  0.73600  0.76390  1.0000
  C   C338      1.0  0.04837  0.77033  0.79683  1.0000
  C   C339      1.0  0.00769  0.78746  0.76979  1.0000
  H   H567      1.0  0.07720  0.95809  0.86768  1.0000
  C   C340      1.0  0.05608  0.95475  0.85662  1.0000
  C   C341      1.0  0.07498  0.78427  0.78108  1.0000
  H   H568      1.0  0.46917  0.61438  0.75746  1.0000
  C   C342      1.0  0.46267  0.70073  0.81794  1.0000
  H   H569      1.0  0.00442  0.80656  0.78321  1.0000
  H   H570      1.0  0.18499  0.77535  0.93712  1.0000
  C   C343      1.0  0.10438  0.78671  0.79604  1.0000
  H   H571      1.0  0.00871  0.72662  0.81069  1.0000
  H   H572      1.0  0.33953  0.95657  0.80614  1.0000
  H   H573      1.0  0.03847  0.74717  0.74641  1.0000
  H   H574      1.0  0.05077  0.72344  0.77087  1.0000
  H   H575      1.0  0.05742  0.75100  0.80782  1.0000
  H   H576      1.0  0.04253  0.78822  0.81061  1.0000
  H   H577      1.0  0.00759  0.58875  0.83891  1.0000
  H   H578      1.0  0.02443  0.79675  0.75602  1.0000
  H   H579      1.0  0.36330  0.92812  0.82007  1.0000
  C   C344      1.0  0.35724  0.93919  0.80232  1.0000
  H   H580      1.0  0.11414  0.98784  0.80027  1.0000
  H   H581      1.0  0.21140  0.58618  0.87132  1.0000
  H   H582      1.0  0.06908  0.80773  0.77507  1.0000
  H   H583      1.0  0.08007  0.77040  0.76434  1.0000
  H   H584      1.0  0.37782  0.95110  0.79470  1.0000
  H   H585      1.0  0.10593  0.94819  0.83150  1.0000
  C   C345      1.0  0.48146  0.72704  0.78092  1.0000
  H   H586      1.0  0.22228  0.57261  0.69176  1.0000
  C   C346      1.0  0.32908  0.54620  0.71770  1.0000
  H   H587      1.0  0.03809  0.96740  0.86696  1.0000
  S   S86       1.0  0.48159  0.97836  0.75759  1.0000
  C   C347      1.0  0.09993  0.71051  0.97348  1.0000
  H   H588      1.0  0.08204  0.97531  0.78259  1.0000
  H   H589      1.0  0.06061  0.91458  0.89650  1.0000
  H   H590      1.0  0.21180  0.55636  0.66297  1.0000
  H   H591      1.0  0.26275  0.49941  0.67013  1.0000
  H   H592      1.0  0.10067  0.80019  0.81326  1.0000
  H   H593      1.0  0.37987  0.74601  0.76620  1.0000
  H   H594      1.0  0.15093  0.89947  0.67475  1.0000
  H   H595      1.0  0.02987  0.93855  0.80934  1.0000
  H   H596      1.0  0.28085  0.60796  0.68799  1.0000
  C   C348      1.0  0.00147  0.97185  0.82787  1.0000
  H   H597      1.0  0.42516  0.87312  0.75540  1.0000
  H   H598      1.0  0.01972  0.70594  0.71786  1.0000
  H   H599      1.0  0.42903  0.75992  0.78649  1.0000
  C   C349      1.0  0.26766  0.60767  0.67057  1.0000
  C   C350      1.0  0.34028  0.83611  0.80336  1.0000
  H   H600      1.0  0.20948  0.97452  0.67694  1.0000
  H   H601      1.0  0.37310  0.97057  0.66922  1.0000
  H   H602      1.0  0.27974  0.65518  0.66322  1.0000
  N   N19       1.0  0.12824  0.61792  0.84113  1.0000
  C   C351      1.0  0.13837  0.64733  0.82875  1.0000
  C   C352      1.0  0.11174  0.59801  0.82243  1.0000
  C   C353      1.0  0.10546  0.62621  0.86125  1.0000
  C   C354      1.0  0.15430  0.60098  0.85281  1.0000
  C   C355      1.0  0.18611  0.60371  0.83990  1.0000
  C   C356      1.0  0.15054  0.67272  0.84647  1.0000
  C   C357      1.0  0.08838  0.59907  0.87398  1.0000
  C   C358      1.0  0.13037  0.58716  0.79959  1.0000
  C   C359      1.0  0.10968  0.57124  0.78064  1.0000
  C   C360      1.0  0.20875  0.58155  0.85117  1.0000
  C   C361      1.0  0.16752  0.69801  0.83230  1.0000
  C   C362      1.0  0.07100  0.60966  0.89710  1.0000
  H   H603      1.0  0.11897  0.65734  0.81843  1.0000
  H   H604      1.0  0.15613  0.64321  0.81442  1.0000
  H   H605      1.0  0.10303  0.57657  0.83114  1.0000
  H   H606      1.0  0.09127  0.61006  0.81563  1.0000
  H   H607      1.0  0.08781  0.64171  0.85382  1.0000
  H   H608      1.0  0.11699  0.63941  0.87629  1.0000
  H   H609      1.0  0.15798  0.60895  0.87224  1.0000
  H   H610      1.0  0.14829  0.57621  0.85446  1.0000
  H   H611      1.0  0.19579  0.62714  0.84227  1.0000
  H   H612      1.0  0.18507  0.59902  0.81978  1.0000
  H   H613      1.0  0.13112  0.68344  0.85641  1.0000
  H   H614      1.0  0.16605  0.66342  0.86063  1.0000
  H   H615      1.0  0.10453  0.58109  0.87957  1.0000
  H   H616      1.0  0.07122  0.58881  0.86125  1.0000
  H   H617      1.0  0.14208  0.60637  0.78994  1.0000
  H   H618      1.0  0.14743  0.57016  0.80541  1.0000
  H   H619      1.0  0.12369  0.56185  0.76519  1.0000
  H   H620      1.0  0.09652  0.55207  0.78928  1.0000
  H   H621      1.0  0.09345  0.58776  0.77272  1.0000
  H   H622      1.0  0.20092  0.55749  0.84841  1.0000
  H   H623      1.0  0.36305  0.89319  0.73099  1.0000
  S   S87       1.0  0.45807  0.98155  0.70010  1.0000
  H   H624      1.0  0.18824  0.68887  0.82304  1.0000
  H   H625      1.0  0.15239  0.70827  0.81826  1.0000
  H   H626      1.0  0.17476  0.71630  0.84546  1.0000
  H   H627      1.0  0.08702  0.61953  0.91092  1.0000
  H   H628      1.0  0.47634  0.67833  0.86504  1.0000
  H   H629      1.0  0.99640  0.68226  0.98966  1.0000
  H   H630      1.0  0.03438  0.97590  0.79795  1.0000
  H   H631      1.0  0.44393  0.68632  0.82608  1.0000
  S   S88       1.0  0.00028  0.55295  0.71886  1.0000
  S   S89       1.0  0.00673  0.55585  0.79277  1.0000
  H   H632      1.0  0.32278  0.56544  0.73019  1.0000
  H   H633      1.0  0.40661  0.86373  0.72675  1.0000
  H   H634      1.0  0.17192  0.55086  0.70803  1.0000
  H   H635      1.0  0.45717  0.80765  0.95996  1.0000
  H   H636      1.0  0.12880  0.67044  0.98090  1.0000
  H   H637      1.0  0.13027  0.95802  0.76375  1.0000
  H   H638      1.0  0.47240  0.86354  0.78480  1.0000
  C   C363      1.0  0.10381  0.54997  0.65955  1.0000
  C   C364      1.0  0.34507  0.91545  0.78384  1.0000
  H   H639      1.0  0.47600  0.77974  0.90307  1.0000
  H   H640      1.0  0.29246  0.83156  0.81484  1.0000
  H   H641      1.0  0.99550  0.95590  0.84318  1.0000
  C   C365      1.0  0.30991  0.89464  0.70804  1.0000
  C   C366      1.0  0.17659  0.52934  0.69771  1.0000
  H   H642      1.0  0.39344  0.56258  0.66610  1.0000
  H   H643      1.0  0.34400  0.85636  0.81552  1.0000
  C   C367      1.0  0.22562  0.55207  0.67985  1.0000
  S   S90       1.0  0.39555  0.49557  0.66595  1.0000
  C   C368      1.0  0.04111  0.90966  0.88400  1.0000
  S   S91       1.0  0.41054  0.96092  0.74456  1.0000
  H   H644      1.0  0.02041  0.92132  0.89111  1.0000
  H   H645      1.0  0.41599  0.74154  0.81448  1.0000
  H   H646      1.0  0.33919  0.92790  0.76669  1.0000
  C   C369      1.0  0.12087  0.94591  0.78026  1.0000
  H   H647      1.0  0.42259  0.70889  0.76416  1.0000
  H   H648      1.0  0.21406  0.50282  0.68438  1.0000
  C   C370      1.0  0.08899  0.65518  0.96121  1.0000
  H   H649      1.0  0.37987  0.88385  0.79549  1.0000
  N   N20       1.0  0.35888  0.86367  0.76313  1.0000
  H   H650      1.0  0.23145  0.58453  0.84204  1.0000
  C   C371      1.0  0.48277  0.61604  0.67367  1.0000
  C   C372      1.0  0.33359  0.84614  0.77634  1.0000
  C   C373      1.0  0.46247  0.83338  0.92459  1.0000
  C   C374      1.0  0.41332  0.85458  0.74501  1.0000
  H   H651      1.0  0.32412  0.90512  0.79209  1.0000
  C   C375      1.0  0.11391  0.67926  0.96613  1.0000
  H   H652      1.0  0.45994  0.72375  0.82644  1.0000
  H   H653      1.0  0.15217  0.96971  0.68848  1.0000
  H   H654      1.0  0.06875  0.90680  0.85121  1.0000
  H   H655      1.0  0.02895  0.91359  0.84581  1.0000
  H   H656      1.0  0.44760  0.83415  0.90789  1.0000
  H   H657      1.0  0.18519  0.94788  0.66173  1.0000
  H   H658      1.0  0.42947  0.65588  0.75692  1.0000
  C   C376      1.0  0.41519  0.83019  0.95228  1.0000
  H   H659      1.0  0.35401  0.85461  0.72361  1.0000
  H   H660      1.0  0.32020  0.57034  0.68427  1.0000
  H   H661      1.0  0.45738  0.62523  0.72695  1.0000
  H   H662      1.0  0.41169  0.69114  0.79214  1.0000
  H   H663      1.0  0.22811  0.91078  0.66938  1.0000
  H   H664      1.0  0.12247  0.79837  0.78486  1.0000
  H   H665      1.0  0.38801  0.90354  0.76780  1.0000
  H   H666      1.0  0.48630  0.82287  0.87787  1.0000
  C   C377      1.0  0.08559  0.82847  0.65924  1.0000
  H   H667      1.0  0.12766  0.68169  0.94882  1.0000
  H   H668      1.0  0.04120  0.68194  0.73840  1.0000
  H   H669      1.0  0.35418  0.54734  0.71444  1.0000
  H   H670      1.0  0.39511  0.83639  0.77870  1.0000
  H   H671      1.0  0.22112  0.52303  0.71293  1.0000
  H   H672      1.0  0.16305  0.78472  0.97948  1.0000
  C   C378      1.0  0.00130  0.72725  0.97374  1.0000
  H   H673      1.0  0.09946  0.77305  0.96955  1.0000
  Fe  Fe48      1.0  0.48797  0.52893  0.71608  1.0000
  H   H674      1.0  0.45741  0.61555  0.67476  1.0000
  C   C379      1.0  0.36941  0.89115  0.77786  1.0000
  S   S92       1.0  0.05606  0.51051  0.74137  1.0000
  H   H675      1.0  0.44684  0.59473  0.84606  1.0000
  H   H676      1.0  0.44374  0.81890  0.75779  1.0000
  H   H677      1.0  0.31887  0.81080  0.83359  1.0000
  H   H678      1.0  0.08961  0.72013  0.95646  1.0000
  H   H679      1.0  0.03660  0.88456  0.88409  1.0000
  H   H680      1.0  0.46368  0.85730  0.93178  1.0000
  C   C380      1.0  0.41521  0.74057  0.79404  1.0000
  H   H681      1.0  0.09152  0.81099  0.67319  1.0000
  H   H682      1.0  0.32738  0.82530  0.76539  1.0000
  C   C381      1.0  0.48255  0.72828  0.97631  1.0000
  H   H683      1.0  0.30925  0.79653  0.80327  1.0000
  H   H684      1.0  0.11244  0.76357  0.80100  1.0000
  C   C382      1.0  0.01834  0.69154  0.73475  1.0000
  C   C383      1.0  0.43642  0.82929  0.74012  1.0000
  C   C384      1.0  0.42692  0.70937  0.78435  1.0000
  S   S93       1.0  0.46629  0.91478  0.72756  1.0000
  C   C385      1.0  0.46968  0.63326  0.74373  1.0000
  H   H685      1.0  0.36063  0.82144  0.80439  1.0000
  H   H686      1.0  0.30634  0.89688  0.74766  1.0000
  H   H687      1.0  0.27073  0.56564  0.70974  1.0000
  C   C386      1.0  0.31500  0.88064  0.73357  1.0000
  H   H688      1.0  0.47444  0.87674  0.89144  1.0000
  H   H689      1.0  0.45688  0.83911  0.73057  1.0000
  C   C387      1.0  0.36849  0.92209  0.66293  1.0000
  C   C388      1.0  0.34916  0.87307  0.73739  1.0000
  Fe  Fe49      1.0  0.00083  0.91812  0.74965  1.0000
  C   C389      1.0  0.38558  0.84230  0.76033  1.0000
  C   C390      1.0  0.38203  0.74546  0.78669  1.0000
  H   H690      1.0  0.46043  0.65276  0.79248  1.0000
  H   H691      1.0  0.42133  0.85135  0.96268  1.0000
  N   N21       1.0  0.25891  0.54882  0.67308  1.0000
  S   S94       1.0  0.07543  0.55947  0.68207  1.0000
  H   H692      1.0  0.45597  0.74030  0.74740  1.0000
  C   C391      1.0  0.27736  0.54721  0.69652  1.0000
  H   H693      1.0  0.16020  0.71688  0.96387  1.0000
  H   H694      1.0  0.37785  0.82031  0.75171  1.0000
  H   H695      1.0  0.13898  0.74558  0.94886  1.0000
  H   H696      1.0  0.07366  0.66285  0.94625  1.0000
  H   H697      1.0  0.16648  0.50986  0.70825  1.0000
  C   C392      1.0  0.47964  0.73562  0.75319  1.0000
  C   C393      1.0  0.44394  0.81381  0.94347  1.0000
  H   H698      1.0  0.00178  0.77477  0.96352  1.0000
  H   H699      1.0  0.31238  0.85961  0.77751  1.0000
  H   H700      1.0  0.28528  0.89926  0.70552  1.0000
  S   S95       1.0  0.40610  0.50290  0.73907  1.0000
  H   H701      1.0  0.18546  0.75340  0.99113  1.0000
  C   C394      1.0  0.03225  0.96284  0.81549  1.0000
  C   C395      1.0  0.21092  0.52487  0.69425  1.0000
  H   H702      1.0  0.32348  0.52411  0.72689  1.0000
  H   H703      1.0  0.32286  0.91660  0.70617  1.0000
  C   C396      1.0  0.10733  0.91616  0.66304  1.0000
  H   H704      1.0  0.07961  0.92796  0.81295  1.0000
  H   H705      1.0  0.21367  0.78414  0.95991  1.0000
  C   C397      1.0  0.08676  0.95159  0.81843  1.0000
  S   S96       1.0  0.39634  0.91088  0.68488  1.0000
  H   H706      1.0  0.08038  0.70533  0.98621  1.0000
  H   H707      1.0  0.31745  0.87872  0.69316  1.0000
  C   C398      1.0  0.99411  0.75816  0.97708  1.0000
  C   C399      1.0  0.99103  0.70620  0.99185  1.0000
  C   C400      1.0  0.04865  0.91995  0.85761  1.0000
  S   S97       1.0  0.47405  0.52731  0.75648  1.0000
  H   H708      1.0  0.05606  0.75049  0.98970  1.0000
  H   H709      1.0  0.16525  0.53024  0.67942  1.0000
  C   C401      1.0  0.10442  0.76325  0.98810  1.0000
  H   H710      1.0  0.07512  0.65096  0.97824  1.0000
  N   N22       1.0  0.45976  0.70228  0.79003  1.0000
  C   C402      1.0  0.45409  0.66165  0.75429  1.0000
  H   H711      1.0  0.00380  0.77616  0.83360  1.0000
  H   H712      1.0  0.20800  0.74521  0.94976  1.0000
  N   N23       1.0  0.12149  0.73365  0.98517  1.0000
  C   C403      1.0  0.10024  0.96744  0.79499  1.0000
  H   H713      1.0  0.09961  0.63334  0.95542  1.0000
  C   C404      1.0  0.14782  0.73858  0.96726  1.0000
  C   C405      1.0  0.19620  0.76694  0.95413  1.0000
  H   H714      1.0  0.45577  0.67987  0.74023  1.0000
  H   H715      1.0  0.09849  0.98296  0.67630  1.0000
  H   H716      1.0  0.25503  0.94075  0.67839  1.0000
  C   C406      1.0  0.36131  0.95276  0.65893  1.0000
  H   H717      1.0  0.47854  0.74833  0.79213  1.0000
  C   C407      1.0  0.46811  0.67127  0.77953  1.0000
  C   C408      1.0  0.13745  0.90634  0.65908  1.0000
  C   C409      1.0  0.45594  0.74164  0.98570  1.0000
  C   C410      1.0  0.99802  0.74616  0.80105  1.0000
  C   C411      1.0  0.24471  0.92829  0.66247  1.0000
  H   H718      1.0  0.00215  0.67222  0.73127  1.0000
  H   H719      1.0  0.00407  0.69449  0.77282  1.0000
  C   C412      1.0  0.00718  0.71038  0.75692  1.0000
  H   H720      1.0  0.48799  0.77725  0.93399  1.0000
  H   H721      1.0  0.09441  0.50152  0.65901  1.0000
  S   S98       1.0  0.54243  0.46353  0.19878  1.0000
  C   C413      1.0  0.65422  0.14892  0.02055  1.0000
  Fe  Fe50      1.0  0.53793  0.47172  0.23971  1.0000
  H   H722      1.0  0.75951  0.17488  0.09502  1.0000
  H   H723      1.0  0.73141  0.02107  0.28247  1.0000
  H   H724      1.0  0.82765  0.03421  0.24720  1.0000
  H   H725      1.0  0.93993  0.29735  0.03951  1.0000
  S   S99       1.0  0.91677  0.01986  0.21110  1.0000
  Fe  Fe51      1.0  0.95653  0.05257  0.21283  1.0000
  H   H726      1.0  0.92153  0.05549  0.11649  1.0000
  Fe  Fe52      1.0  0.92258  0.01386  0.25214  1.0000
  H   H727      1.0  0.85279  0.36982  0.05220  1.0000
  H   H728      1.0  0.57467  0.40456  0.25506  1.0000
  S   S100      1.0  0.95971  0.40942  0.22943  1.0000
  H   H729      1.0  0.57419  0.40708  0.20535  1.0000
  H   H730      1.0  0.75396  0.13149  0.28082  1.0000
  Fe  Fe53      1.0  0.92268  0.44451  0.23296  1.0000
  C   C414      1.0  0.67161  0.07777  0.04003  1.0000
  Fe  Fe54      1.0  0.96694  0.42776  0.19092  1.0000
  H   H731      1.0  0.53946  0.28921  0.01058  1.0000
  H   H732      1.0  0.59698  0.13644  0.08987  1.0000
  H   H733      1.0  0.93274  0.15692  0.21350  1.0000
  C   C415      1.0  0.72673  0.02951  0.30153  1.0000
  S   S101      1.0  0.52530  0.05119  0.25491  1.0000
  Fe  Fe55      1.0  0.53313  0.04595  0.21380  1.0000
  S   S102      1.0  0.55272  0.09006  0.19687  1.0000
  Fe  Fe56      1.0  0.54690  0.00549  0.25874  1.0000
  S   S103      1.0  0.97772  0.39542  0.15858  1.0000
  Fe  Fe57      1.0  0.55644  0.27161  0.07596  1.0000
  S   S104      1.0  0.58135  0.23710  0.09875  1.0000
  S   S105      1.0  0.54064  0.31992  0.08569  1.0000
  Fe  Fe58      1.0  0.55983  0.23276  0.02820  1.0000
  S   S106      1.0  0.58606  0.19559  0.04753  1.0000
  Fe  Fe59      1.0  0.55261  0.20159  0.07913  1.0000
  S   S107      1.0  0.52886  0.15869  0.09467  1.0000
  Fe  Fe60      1.0  0.61377  0.23323  0.06593  1.0000
  S   S108      1.0  0.66418  0.23237  0.07795  1.0000
  S   S109      1.0  0.52485  0.23645  0.05866  1.0000
  S   S110      1.0  0.59040  0.26988  0.04432  1.0000
  Fe  Fe61      1.0  0.84607  0.22553  0.04844  1.0000
  S   S111      1.0  0.87728  0.26660  0.04486  1.0000
  S   S112      1.0  0.79862  0.22467  0.03058  1.0000
  Fe  Fe62      1.0  0.89572  0.18942  0.07532  1.0000
  S   S113      1.0  0.93043  0.22814  0.07344  1.0000
  S   S114      1.0  0.89922  0.14231  0.09334  1.0000
  Fe  Fe63      1.0  0.89082  0.25793  0.08425  1.0000
  S   S115      1.0  0.88675  0.29361  0.11515  1.0000
  Fe  Fe64      1.0  0.91480  0.23404  0.03364  1.0000
  S   S116      1.0  0.85710  0.21882  0.08846  1.0000
  S   S117      1.0  0.88260  0.19329  0.03493  1.0000
  C   C416      1.0  0.70138  0.23323  0.06407  1.0000
  C   C417      1.0  0.72707  0.23328  0.07958  1.0000
  C   C418      1.0  0.75700  0.23180  0.06967  1.0000
  C   C419      1.0  0.76164  0.22966  0.04404  1.0000
  C   C420      1.0  0.73598  0.23005  0.02848  1.0000
  C   C421      1.0  0.70608  0.23213  0.03838  1.0000
  H   H734      1.0  0.72381  0.23424  0.09947  1.0000
  H   H735      1.0  0.77644  0.23165  0.08189  1.0000
  H   H736      1.0  0.73927  0.22859  0.00862  1.0000
  H   H737      1.0  0.68668  0.23240  0.02614  1.0000
  C   C422      1.0  0.60579  0.01533  0.30384  1.0000
  C   C423      1.0  0.60754  0.04644  0.29797  1.0000
  C   C424      1.0  0.90698  0.28054  0.19733  1.0000
  H   H738      1.0  0.59302  0.05544  0.28369  1.0000
  C   C425      1.0  0.54583  0.10846  0.16821  1.0000
  C   C426      1.0  0.55750  0.13829  0.16454  1.0000
  C   C427      1.0  0.55261  0.15394  0.14216  1.0000
  C   C428      1.0  0.53612  0.13984  0.12308  1.0000
  C   C429      1.0  0.52427  0.11007  0.12681  1.0000
  C   C430      1.0  0.52922  0.09439  0.14919  1.0000
  H   H739      1.0  0.57036  0.14940  0.17913  1.0000
  H   H740      1.0  0.56146  0.17698  0.13973  1.0000
  H   H741      1.0  0.51654  0.11792  0.27085  1.0000
  C   C431      1.0  0.91269  0.32148  0.12695  1.0000
  C   C432      1.0  0.94364  0.32207  0.12032  1.0000
  C   C433      1.0  0.96333  0.34468  0.13032  1.0000
  C   C434      1.0  0.95235  0.36674  0.14716  1.0000
  C   C435      1.0  0.92152  0.36577  0.15409  1.0000
  C   C436      1.0  0.90184  0.34322  0.14404  1.0000
  H   H742      1.0  0.95238  0.30509  0.10763  1.0000
  H   H743      1.0  0.81742  0.07200  0.23758  1.0000
  H   H744      1.0  0.91277  0.38257  0.16703  1.0000
  H   H745      1.0  0.87798  0.34281  0.14944  1.0000
  C   C437      1.0  0.85592  0.43938  0.27516  1.0000
  H   H746      1.0  0.89795  0.32803  0.02652  1.0000
  C   C438      1.0  0.88475  0.19833  0.15307  1.0000
  C   C439      1.0  0.86335  0.02590  0.29894  1.0000
  H   H747      1.0  0.97518  0.34083  0.00111  1.0000
  C   C440      1.0  0.94283  0.11220  0.16644  1.0000
  C   C441      1.0  0.95725  0.13476  0.15172  1.0000
  C   C442      1.0  0.94366  0.14516  0.12977  1.0000
  C   C443      1.0  0.91528  0.13333  0.12244  1.0000
  C   C444      1.0  0.90054  0.11139  0.13749  1.0000
  C   C445      1.0  0.91412  0.10097  0.15943  1.0000
  C   C446      1.0  0.63397  0.46401  0.28616  1.0000
  H   H748      1.0  0.95563  0.16145  0.11804  1.0000
  H   H749      1.0  0.87850  0.10236  0.13201  1.0000
  H   H750      1.0  0.90234  0.08436  0.17098  1.0000
  C   C447      1.0  0.60212  0.46189  0.28294  1.0000
  S   S118      1.0  0.95470  0.48046  0.24778  1.0000
  C   C448      1.0  0.52294  0.38112  0.14114  1.0000
  C   C449      1.0  0.52939  0.36760  0.11789  1.0000
  C   C450      1.0  0.53363  0.33582  0.11557  1.0000
  C   C451      1.0  0.53119  0.31764  0.13678  1.0000
  C   C452      1.0  0.93229  0.26713  0.18031  1.0000
  C   C453      1.0  0.78934  0.05314  0.26759  1.0000
  C   C454      1.0  0.95013  0.34175  0.00467  1.0000
  H   H751      1.0  0.53412  0.29317  0.13526  1.0000
  S   S119      1.0  0.96018  0.04966  0.25463  1.0000
  H   H752      1.0  0.75009  0.12757  0.05329  1.0000
  H   H753      1.0  0.59775  0.27822  0.20872  1.0000
  C   C455      1.0  0.89710  0.35134  0.06211  1.0000
  H   H754      1.0  0.51271  0.15587  0.25846  1.0000
  H   H755      1.0  0.89900  0.06027  0.29882  1.0000
  N   N24       1.0  0.59978  0.36644  0.23905  1.0000
  C   C456      1.0  0.62266  0.35519  0.25758  1.0000
  C   C457      1.0  0.59143  0.34057  0.22157  1.0000
  C   C458      1.0  0.61554  0.39117  0.22389  1.0000
  C   C459      1.0  0.59830  0.40210  0.20067  1.0000
  C   C460      1.0  0.61335  0.43085  0.18975  1.0000
  H   H756      1.0  0.64136  0.34279  0.24783  1.0000
  H   H757      1.0  0.61211  0.33333  0.21095  1.0000
  H   H758      1.0  0.63842  0.38341  0.21739  1.0000
  H   H759      1.0  0.61981  0.41193  0.23555  1.0000
  H   H760      1.0  0.59868  0.38428  0.18591  1.0000
  H   H761      1.0  0.58887  0.30315  0.24925  1.0000
  H   H762      1.0  0.56206  0.26570  0.22250  1.0000
  H   H763      1.0  0.97419  0.09448  0.04990  1.0000
  H   H764      1.0  0.95429  0.26821  0.19050  1.0000
  H   H765      1.0  0.63761  0.42656  0.18484  1.0000
  H   H766      1.0  0.70169  0.03267  0.30346  1.0000
  H   H767      1.0  0.93708  0.30473  0.22312  1.0000
  H   H768      1.0  0.78229  0.02988  0.27371  1.0000
  C   C461      1.0  0.71025  0.14369  0.07560  1.0000
  H   H769      1.0  0.71196  0.09016  0.05959  1.0000
  H   H770      1.0  0.52162  0.31678  0.17610  1.0000
  H   H771      1.0  0.62111  0.39708  0.28052  1.0000
  C   C462      1.0  0.74245  0.14813  0.06359  1.0000
  H   H772      1.0  0.64262  0.19684  0.01497  1.0000
  H   H773      1.0  0.69052  0.18447  0.31530  1.0000
  C   C463      1.0  0.76650  0.15524  0.08324  1.0000
  H   H774      1.0  0.55984  0.33987  0.27515  1.0000
  H   H775      1.0  0.66226  0.10803  0.08870  1.0000
  H   H776      1.0  0.96821  0.04179  0.15531  1.0000
  H   H777      1.0  0.86519  0.01892  0.15957  1.0000
  H   H778      1.0  0.71257  0.12824  0.09185  1.0000
  H   H779      1.0  0.70428  0.16655  0.08328  1.0000
  H   H780      1.0  0.79397  0.03918  0.22882  1.0000
  C   C464      1.0  0.78796  0.11505  0.30499  1.0000
  H   H781      1.0  0.50556  0.36857  0.05670  1.0000
  H   H782      1.0  0.53259  0.12678  0.24084  1.0000
  H   H783      1.0  0.66036  0.16327  0.10219  1.0000
  H   H784      1.0  0.95103  0.36800  0.08150  1.0000
  H   H785      1.0  0.74240  0.16758  0.05048  1.0000
  C   C465      1.0  0.96955  0.37546  0.06880  1.0000
  H   H786      1.0  0.87960  0.23186  0.18211  1.0000
  H   H787      1.0  0.49618  0.30142  0.04968  1.0000
  C   C466      1.0  0.56078  0.36512  0.27605  1.0000
  S   S120      1.0  0.94339  0.25218  0.00021  1.0000
  H   H788      1.0  0.63796  0.17190  0.07531  1.0000
  C   C467      1.0  0.76498  0.34146  0.29894  1.0000
  H   H789      1.0  0.76998  0.13500  0.09521  1.0000
  H   H790      1.0  0.78858  0.16132  0.07404  1.0000
  H   H791      1.0  0.98236  0.26521  0.15237  1.0000
  H   H792      1.0  0.97946  0.14364  0.15700  1.0000
  N   N25       1.0  0.68536  0.13172  0.05871  1.0000
  H   H793      1.0  0.92733  0.22593  0.22370  1.0000
  N   N26       1.0  0.74302  0.08335  0.28601  1.0000
  C   C468      1.0  0.74370  0.06030  0.30675  1.0000
  H   H794      1.0  0.82459  0.99556  0.30413  1.0000
  C   C469      1.0  0.70996  0.08742  0.27896  1.0000
  H   H795      1.0  0.66633  0.12934  0.23728  1.0000
  C   C470      1.0  0.70352  0.11278  0.25974  1.0000
  H   H796      1.0  0.84079  0.19172  0.17175  1.0000
  C   C471      1.0  0.67061  0.11058  0.25057  1.0000
  H   H797      1.0  0.66739  0.03449  0.02037  1.0000
  C   C472      1.0  0.57148  0.37964  0.25113  1.0000
  H   H798      1.0  0.73952  0.12207  0.31087  1.0000
  H   H799      1.0  0.90812  0.34976  0.27070  1.0000
  H   H800      1.0  0.70033  0.06579  0.27111  1.0000
  C   C473      1.0  0.98810  0.30867  0.03946  1.0000
  H   H801      1.0  0.85783  0.34729  0.29039  1.0000
  H   H802      1.0  0.71902  0.11101  0.24343  1.0000
  H   H803      1.0  0.70648  0.13578  0.26830  1.0000
  H   H804      1.0  0.63823  0.11613  0.06343  1.0000
  H   H805      1.0  0.91878  0.03493  0.15896  1.0000
  C   C474      1.0  0.65726  0.12575  0.07456  1.0000
  H   H806      1.0  0.56208  0.29275  0.19743  1.0000
  H   H807      1.0  0.65424  0.11269  0.26633  1.0000
  H   H808      1.0  0.55982  0.44607  0.29921  1.0000
  S   S121      1.0  0.58574  0.47829  0.25613  1.0000
  N   N27       1.0  0.94367  0.34586  0.03208  1.0000
  H   H809      1.0  0.89925  0.26423  0.21176  1.0000
  C   C475      1.0  0.90946  0.34824  0.03527  1.0000
  C   C476      1.0  0.93691  0.17809  0.22454  1.0000
  C   C477      1.0  0.51308  0.13115  0.25361  1.0000
  C   C478      1.0  0.97132  0.03303  0.09140  1.0000
  C   C479      1.0  0.57142  0.32169  0.99524  1.0000
  H   H810      1.0  0.96843  0.07126  0.13329  1.0000
  H   H811      1.0  0.85319  0.32859  0.05519  1.0000
  H   H812      1.0  0.95948  0.01713  0.07828  1.0000
  H   H813      1.0  0.52051  0.07133  0.15162  1.0000
  H   H814      1.0  0.61939  0.12750  0.11692  1.0000
  C   C480      1.0  0.96610  0.06624  0.08230  1.0000
  C   C481      1.0  0.80811  0.04949  0.24376  1.0000
  H   H815      1.0  0.90083  0.36867  0.02553  1.0000
  H   H816      1.0  0.49142  0.27933  0.02262  1.0000
  C   C482      1.0  0.68528  0.05206  0.02436  1.0000
  H   H817      1.0  0.49799  0.14053  0.20713  1.0000
  C   C483      1.0  0.87604  0.02472  0.14148  1.0000
  H   H818      1.0  0.65247  0.08751  0.02959  1.0000
  H   H819      1.0  0.63730  0.35616  0.30896  1.0000
  C   C484      1.0  0.86327  0.36066  0.30742  1.0000
  C   C485      1.0  0.79984  0.34213  0.29956  1.0000
  H   H820      1.0  0.70100  0.15980  0.02802  1.0000
  C   C486      1.0  0.91398  0.36774  0.28455  1.0000
  H   H821      1.0  0.80814  0.31881  0.29533  1.0000
  C   C487      1.0  0.91809  0.30978  0.21033  1.0000
  H   H822      1.0  0.85894  0.47510  0.19736  1.0000
  C   C488      1.0  0.94333  0.23377  0.14491  1.0000
  H   H823      1.0  0.64800  0.47491  0.27206  1.0000
  N   N28       1.0  0.96105  0.02611  0.11761  1.0000
  C   C489      1.0  0.91058  0.02090  0.14321  1.0000
  C   C490      1.0  0.97855  0.07069  0.05598  1.0000
  H   H824      1.0  0.66066  0.12956  0.00832  1.0000
  C   C491      1.0  0.59820  0.43599  0.32272  1.0000
  H   H825      1.0  0.96703  0.05467  0.04290  1.0000
  H   H826      1.0  0.58249  0.32779  0.01307  1.0000
  H   H827      1.0  0.76840  0.09364  0.25236  1.0000
  C   C492      1.0  0.95975  0.37465  0.04114  1.0000
  H   H828      1.0  0.92567  0.17517  0.24293  1.0000
  C   C493      1.0  0.64787  0.45232  0.30757  1.0000
  H   H829      1.0  0.67109  0.34958  0.29004  1.0000
  H   H830      1.0  0.89908  0.31988  0.22125  1.0000
  H   H831      1.0  0.61216  0.45017  0.20319  1.0000
  H   H832      1.0  0.62915  0.08999  0.30588  1.0000
  H   H833      1.0  0.63222  0.14364  0.03002  1.0000
  H   H834      1.0  0.75607  0.36498  0.30102  1.0000
  C   C494      1.0  0.83597  0.01617  0.31054  1.0000
  S   S122      1.0  0.55830  0.00150  0.21805  1.0000
  H   H835      1.0  0.52207  0.36504  0.30146  1.0000
  H   H836      1.0  0.85636  0.38455  0.30356  1.0000
  H   H837      1.0  0.51981  0.40557  0.14264  1.0000
  H   H838      1.0  0.69587  0.09251  0.29573  1.0000
  C   C495      1.0  0.67995  0.15568  0.03929  1.0000
  H   H839      1.0  0.51200  0.36977  0.26940  1.0000
  C   C496      1.0  0.81005  0.43383  0.30130  1.0000
  C   C497      1.0  0.58433  0.44758  0.30128  1.0000
  C   C498      1.0  0.92693  0.03090  0.11884  1.0000
  C   C499      1.0  0.52020  0.36288  0.16229  1.0000
  C   C500      1.0  0.61486  0.14512  0.10271  1.0000
  C   C501      1.0  0.57620  0.31175  0.23313  1.0000
  H   H840      1.0  0.89603  0.45612  0.29385  1.0000
  C   C502      1.0  0.57446  0.28558  0.21424  1.0000
  H   H841      1.0  0.85417  0.35239  0.08242  1.0000
  H   H842      1.0  0.89305  0.19717  0.13360  1.0000
  C   C503      1.0  0.87210  0.44999  0.29579  1.0000
  H   H843      1.0  0.83898  0.21257  0.14289  1.0000
  H   H844      1.0  0.57474  0.34830  0.20753  1.0000
  H   H845      1.0  0.89903  0.20128  0.20917  1.0000
  H   H846      1.0  0.90424  0.37368  0.07015  1.0000
  H   H847      1.0  0.78613  0.42766  0.30322  1.0000
  C   C504      1.0  0.85727  0.45254  0.31902  1.0000
  C   C505      1.0  0.82481  0.43148  0.27804  1.0000
  H   H848      1.0  0.98693  0.40714  0.09653  1.0000
  H   H849      1.0  0.90622  0.37935  0.32251  1.0000
  H   H850      1.0  0.80419  0.11132  0.28942  1.0000
  C   C506      1.0  0.53859  0.31056  0.99964  1.0000
  H   H851      1.0  0.91553  0.01846  0.10329  1.0000
  H   H852      1.0  0.85756  0.30394  0.31394  1.0000
  H   H853      1.0  0.66199  0.06728  0.05720  1.0000
  H   H854      1.0  0.51138  0.09900  0.11221  1.0000
  C   C507      1.0  0.97595  0.04739  0.13616  1.0000
  C   C508      1.0  0.92380  0.20583  0.21139  1.0000
  H   H855      1.0  0.52932  0.40117  0.28657  1.0000
  H   H856      1.0  0.75546  0.32673  0.31395  1.0000
  H   H857      1.0  0.88689  0.28657  0.18596  1.0000
  H   H858      1.0  0.94526  0.39493  0.03778  1.0000
  H   H859      1.0  0.53077  0.33686  0.03250  1.0000
  H   H860      1.0  0.90675  0.39031  0.27747  1.0000
  H   H861      1.0  0.96424  0.21713  0.19083  1.0000
  H   H862      1.0  0.93494  0.28423  0.16515  1.0000
  H   H863      1.0  0.94145  0.18896  0.17631  1.0000
  H   H864      1.0  0.55199  0.37853  0.23799  1.0000
  H   H865      1.0  0.55241  0.31702  0.23885  1.0000
  C   C509      1.0  0.96703  0.99302  0.12405  1.0000
  C   C510      1.0  0.86219  0.35050  0.06287  1.0000
  H   H866      1.0  0.76740  0.05515  0.31213  1.0000
  H   H867      1.0  0.81209  0.42330  0.26218  1.0000
  H   H868      1.0  0.67522  0.17801  0.04822  1.0000
  H   H869      1.0  0.86648  0.00920  0.12706  1.0000
  C   C511      1.0  0.89336  0.22972  0.16489  1.0000
  H   H870      1.0  0.66638  0.08840  0.24094  1.0000
  S   S123      1.0  0.96165  0.09890  0.19324  1.0000
  H   H871      1.0  0.80464  0.06269  0.28192  1.0000
  N   N29       1.0  0.92693  0.23534  0.16965  1.0000
  C   C512      1.0  0.89862  0.36098  0.30955  1.0000
  S   S124      1.0  0.87829  0.00406  0.27386  1.0000
  H   H872      1.0  0.89447  0.17904  0.16350  1.0000
  H   H873      1.0  0.94134  0.21046  0.13676  1.0000
  H   H874      1.0  0.84469  0.17180  0.14254  1.0000
  H   H875      1.0  0.69413  0.06116  0.00644  1.0000
  H   H876      1.0  0.88458  0.24781  0.15247  1.0000
  H   H877      1.0  0.92615  0.32697  0.19655  1.0000
  H   H878      1.0  0.60117  0.43736  0.17265  1.0000
  C   C513      1.0  0.94016  0.21128  0.18624  1.0000
  C   C514      1.0  0.62809  0.06598  0.31058  1.0000
  C   C515      1.0  0.69625  0.10225  0.04689  1.0000
  Fe  Fe65      1.0  0.50522  0.42849  0.20312  1.0000
  H   H879      1.0  0.60598  0.16581  0.11218  1.0000
  C   C516      1.0  0.64919  0.17650  0.00380  1.0000
  H   H880      1.0  0.75720  0.33210  0.28086  1.0000
  H   H881      1.0  0.65554  0.39316  0.26261  1.0000
  C   C517      1.0  0.75470  0.11387  0.29556  1.0000
  H   H882      1.0  0.95129  0.31913  0.06523  1.0000
  H   H883      1.0  0.94144  0.07167  0.08188  1.0000
  C   C518      1.0  0.52909  0.37601  0.28374  1.0000
  H   H884      1.0  0.90503  0.33255  0.07394  1.0000
  S   S125      1.0  0.50200  0.43486  0.24463  1.0000
  H   H885      1.0  0.66652  0.38532  0.30629  1.0000
  S   S126      1.0  0.87334  0.43505  0.24554  1.0000
  C   C519      1.0  0.65420  0.36687  0.29606  1.0000
  H   H886      1.0  0.93236  0.24935  0.13143  1.0000
  C   C520      1.0  0.63808  0.38043  0.27372  1.0000
  C   C521      1.0  0.64401  0.15375  0.08850  1.0000
  S   S127      1.0  0.51151  0.37836  0.19202  1.0000
  H   H887      1.0  0.53121  0.38188  0.10161  1.0000
  H   H888      1.0  0.57669  0.37168  0.29114  1.0000
  H   H889      1.0  0.71007  0.10736  0.02990  1.0000
  H   H890      1.0  0.93918  0.36849  0.28671  1.0000
  H   H891      1.0  0.98586  0.26500  0.05858  1.0000
  C   C522      1.0  0.95441  0.31740  0.04491  1.0000
  C   C523      1.0  0.76088  0.07328  0.26330  1.0000
  H   H892      1.0  0.61231  0.33807  0.27030  1.0000
  H   H893      1.0  0.74600  0.05975  0.25053  1.0000
  S   S128      1.0  0.92756  0.46013  0.19327  1.0000
  C   C524      1.0  0.87790  0.05254  0.30750  1.0000
  C   C525      1.0  0.52426  0.33111  0.15994  1.0000
  C   C526      1.0  0.85014  0.19342  0.15260  1.0000
  H   H894      1.0  0.80782  0.35766  0.28450  1.0000
  H   H895      1.0  0.94381  0.39007  0.99424  1.0000
  C   C527      1.0  0.51985  0.33481  0.01400  1.0000
  C   C528      1.0  0.79594  0.14641  0.31607  1.0000
  C   C529      1.0  0.82626  0.44425  0.32198  1.0000
  H   H896      1.0  0.70415  0.04094  0.03440  1.0000
  H   H897      1.0  0.91455  0.99658  0.14752  1.0000
  S   S129      1.0  0.58033  0.98986  0.28827  1.0000
  H   H898      1.0  0.67234  0.45433  0.30986  1.0000
  H   H899      1.0  0.79415  0.16459  0.30187  1.0000
  H   H900      1.0  0.96039  0.42378  0.07539  1.0000
  H   H901      1.0  0.87033  0.04867  0.13695  1.0000
  H   H902      1.0  0.90701  0.33869  0.31625  1.0000
  H   H903      1.0  0.52369  0.35751  0.00516  1.0000
  H   H904      1.0  0.73330  0.07009  0.32390  1.0000
  C   C530      1.0  0.97803  0.24172  0.14517  1.0000
  C   C531      1.0  0.97962  0.40759  0.07684  1.0000
  H   H905      1.0  0.94064  0.31933  0.99806  1.0000
  H   H906      1.0  0.97789  0.08323  0.09434  1.0000
  H   H907      1.0  0.98106  0.37908  0.03021  1.0000
  H   H908      1.0  0.76020  0.99922  0.31768  1.0000
  H   H909      1.0  0.96189  0.18105  0.22737  1.0000
  H   H910      1.0  0.98721  0.34519  0.12497  1.0000
  H   H911      1.0  0.96869  0.99050  0.14454  1.0000
  C   C532      1.0  0.73566  0.00476  0.31986  1.0000
  H   H912      1.0  0.79164  0.09787  0.31958  1.0000
  H   H913      1.0  0.67029  0.18213  0.99305  1.0000
  H   H914      1.0  0.98041  0.25659  0.10676  1.0000
  C   C533      1.0  0.62490  0.00404  0.32245  1.0000
  C   C534      1.0  0.81203  0.35385  0.32489  1.0000
  H   H915      1.0  0.81977  0.14623  0.32298  1.0000
  Fe  Fe66      1.0  0.77649  0.08126  0.38311  1.0000
  S   S130      1.0  0.74096  0.04380  0.38877  1.0000
  H   H916      1.0  0.85145  0.39118  0.34882  1.0000
  Fe  Fe67      1.0  0.73637  0.13168  0.40635  1.0000
  S   S131      1.0  0.69812  0.09772  0.41346  1.0000
  S   S132      1.0  0.72915  0.18133  0.41942  1.0000
  Fe  Fe68      1.0  0.73386  0.06496  0.42712  1.0000
  S   S133      1.0  0.72579  0.04590  0.46687  1.0000
  Fe  Fe69      1.0  0.70764  0.07907  0.37521  1.0000
  H   H917      1.0  0.62464  0.12922  0.35719  1.0000
  S   S134      1.0  0.77158  0.10028  0.42198  1.0000
  S   S135      1.0  0.74377  0.11504  0.36755  1.0000
  Fe  Fe70      1.0  0.72992  0.41966  0.41656  1.0000
  S   S136      1.0  0.69685  0.38504  0.39987  1.0000
  S   S137      1.0  0.72590  0.43037  0.45864  1.0000
  Fe  Fe71      1.0  0.76442  0.42612  0.36663  1.0000
  S   S138      1.0  0.73305  0.39328  0.34679  1.0000
  S   S139      1.0  0.80890  0.44769  0.35176  1.0000
  Fe  Fe72      1.0  0.69492  0.41697  0.36711  1.0000
  S   S140      1.0  0.64587  0.42419  0.35396  1.0000
  Fe  Fe73      1.0  0.73701  0.36334  0.38062  1.0000
  S   S141      1.0  0.74824  0.31362  0.36979  1.0000
  S   S142      1.0  0.72592  0.45256  0.38475  1.0000
  S   S143      1.0  0.77024  0.39535  0.39960  1.0000
  C   C535      1.0  0.73465  0.21781  0.40510  1.0000
  C   C536      1.0  0.74772  0.22118  0.38148  1.0000
  C   C537      1.0  0.75144  0.25060  0.37098  1.0000
  C   C538      1.0  0.74229  0.27709  0.38392  1.0000
  C   C539      1.0  0.72911  0.27370  0.40749  1.0000
  C   C540      1.0  0.72537  0.24428  0.41797  1.0000
  H   H918      1.0  0.75526  0.20115  0.37142  1.0000
  H   H919      1.0  0.76163  0.25287  0.35274  1.0000
  H   H920      1.0  0.72207  0.29376  0.41776  1.0000
  H   H921      1.0  0.71549  0.24208  0.43633  1.0000
  C   C541      1.0  0.64710  0.05474  0.32921  1.0000
  C   C542      1.0  0.72880  0.46286  0.47909  1.0000
  C   C543      1.0  0.72447  0.45855  0.50481  1.0000
  H   H922      1.0  0.66551  0.45017  0.48434  1.0000
  H   H923      1.0  0.71988  0.43574  0.51173  1.0000
  H   H924      1.0  0.77923  0.99402  0.63698  1.0000
  C   C544      1.0  0.73055  0.01314  0.48631  1.0000
  C   C545      1.0  0.62550  0.00855  0.52717  1.0000
  H   H925      1.0  0.83532  0.02807  0.49017  1.0000
  C   C546      1.0  0.59138  0.41185  0.41816  1.0000
  C   C547      1.0  0.72910  0.99107  0.52830  1.0000
  H   H926      1.0  0.87689  0.48054  0.57378  1.0000
  H   H927      1.0  0.67860  0.39551  0.49040  1.0000
  H   H928      1.0  0.49410  0.45012  0.65722  1.0000
  C   C548      1.0  0.57857  0.40412  0.39260  1.0000
  H   H929      1.0  0.65999  0.01467  0.34939  1.0000
  C   C549      1.0  0.83806  0.05933  0.33924  1.0000
  H   H930      1.0  0.81279  0.48281  0.47434  1.0000
  C   C550      1.0  0.65402  0.18730  0.44880  1.0000
  N   N30       1.0  0.84547  0.34818  0.32943  1.0000
  C   C551      1.0  0.81376  0.48656  0.58889  1.0000
  C   C552      1.0  0.64544  0.02363  0.33513  1.0000
  C   C553      1.0  0.60338  0.18483  0.37908  1.0000
  H   H931      1.0  0.71995  0.03835  0.51966  1.0000
  H   H932      1.0  0.70372  0.21300  0.33746  1.0000
  N   N31       1.0  0.63432  0.17003  0.37899  1.0000
  H   H933      1.0  0.83554  0.48733  0.62503  1.0000
  C   C554      1.0  0.64694  0.43280  0.48441  1.0000
  H   H934      1.0  0.84849  0.33465  0.38287  1.0000
  H   H935      1.0  0.82968  0.46914  0.58181  1.0000
  H   H936      1.0  0.65866  0.47948  0.39516  1.0000
  C   C555      1.0  0.82337  0.03279  0.33058  1.0000
  H   H937      1.0  0.57102  0.00572  0.60811  1.0000
  H   H938      1.0  0.61807  0.40731  0.46059  1.0000
  H   H939      1.0  0.60391  0.00127  0.57099  1.0000
  H   H940      1.0  0.71380  0.00146  0.59157  1.0000
  H   H941      1.0  0.62145  0.12016  0.41388  1.0000
  H   H942      1.0  0.81510  0.35666  0.37584  1.0000
  H   H943      1.0  0.60011  0.00833  0.52729  1.0000
  H   H944      1.0  0.67039  0.20671  0.44626  1.0000
  H   H945      1.0  0.65660  0.40898  0.44983  1.0000
  H   H946      1.0  0.53737  0.18700  0.34295  1.0000
  C   C556      1.0  0.65181  0.17866  0.40220  1.0000
  H   H947      1.0  0.80882  0.05809  0.49743  1.0000
  H   H948      1.0  0.78836  0.47085  0.49960  1.0000
  C   C557      1.0  0.65206  0.18240  0.35695  1.0000
  H   H949      1.0  0.81677  0.02247  0.57945  1.0000
  H   H950      1.0  0.57147  0.42522  0.38295  1.0000
  H   H951      1.0  0.81801  0.30357  0.36175  1.0000
  C   C558      1.0  0.78530  0.00590  0.61942  1.0000
  C   C559      1.0  0.63620  0.01931  0.50154  1.0000
  C   C560      1.0  0.58314  0.17838  0.35611  1.0000
  H   H952      1.0  0.86997  0.46079  0.33487  1.0000
  C   C561      1.0  0.60898  0.08446  0.38867  1.0000
  C   C562      1.0  0.82721  0.29388  0.34430  1.0000
  H   H953      1.0  0.88020  0.36398  0.35511  1.0000
  H   H954      1.0  0.87423  0.38101  0.39981  1.0000
  H   H955      1.0  0.82049  0.47824  0.54185  1.0000
  C   C563      1.0  0.85533  0.36631  0.35194  1.0000
  H   H956      1.0  0.55832  0.38871  0.39458  1.0000
  H   H957      1.0  0.80080  0.02546  0.62389  1.0000
  H   H958      1.0  0.68550  0.14644  0.34926  1.0000
  C   C564      1.0  0.80768  0.99886  0.57618  1.0000
  H   H959      1.0  0.62025  0.20584  0.42486  1.0000
  H   H960      1.0  0.86508  0.01539  0.56011  1.0000
  H   H961      1.0  0.63862  0.42027  0.40774  1.0000
  H   H962      1.0  0.79505  0.03475  0.53682  1.0000
  C   C565      1.0  0.65887  0.46664  0.43438  1.0000
  S   S144      1.0  0.82375  0.08085  0.36475  1.0000
  H   H963      1.0  0.84762  0.25070  0.33289  1.0000
  C   C566      1.0  0.61969  0.43363  0.41624  1.0000
  H   H964      1.0  0.67738  0.45097  0.42838  1.0000
  H   H965      1.0  0.66915  0.16103  0.40626  1.0000
  C   C567      1.0  0.85247  0.31458  0.33230  1.0000
  H   H966      1.0  0.83577  0.03995  0.53498  1.0000
  H   H967      1.0  0.83814  0.37335  0.41508  1.0000
  C   C568      1.0  0.86536  0.06907  0.32757  1.0000
  H   H968      1.0  0.59933  0.08109  0.36986  1.0000
  C   C569      1.0  0.63311  0.18419  0.42637  1.0000
  C   C570      1.0  0.63000  0.43842  0.32610  1.0000
  H   H969      1.0  0.78064  0.15181  0.33196  1.0000
  H   H970      1.0  0.55252  0.21656  0.36299  1.0000
  H   H971      1.0  0.72290  0.47943  0.54141  1.0000
  H   H972      1.0  0.61656  0.16544  0.43020  1.0000
  H   H973      1.0  0.82756  0.45882  0.49844  1.0000
  H   H974      1.0  0.85812  0.26368  0.36368  1.0000
  H   H975      1.0  0.69857  0.17450  0.37127  1.0000
  H   H976      1.0  0.64618  0.01760  0.58719  1.0000
  H   H977      1.0  0.79069  0.48079  0.58161  1.0000
  H   H978      1.0  0.79740  0.34390  0.33975  1.0000
  H   H979      1.0  0.59382  0.07262  0.40229  1.0000
  H   H980      1.0  0.80272  0.02477  0.33973  1.0000
  C   C571      1.0  0.63784  0.42311  0.45784  1.0000
  H   H981      1.0  0.80767  0.29082  0.33154  1.0000
  C   C572      1.0  0.72592  0.01622  0.51213  1.0000
  C   C573      1.0  0.69206  0.01108  0.59860  1.0000
  C   C574      1.0  0.81197  0.47799  0.49453  1.0000
  H   H982      1.0  0.63183  0.07376  0.38930  1.0000
  C   C575      1.0  0.63202  0.13571  0.37623  1.0000
  C   C576      1.0  0.84030  0.35737  0.37695  1.0000
  C   C577      1.0  0.81367  0.03343  0.50004  1.0000
  C   C578      1.0  0.72622  0.48336  0.52178  1.0000
  H   H983      1.0  0.66529  0.20027  0.39939  1.0000
  C   C579      1.0  0.81995  0.99153  0.53210  1.0000
  H   H984      1.0  0.64019  0.19160  0.46578  1.0000
  N   N32       1.0  0.63011  0.44850  0.44015  1.0000
  H   H985      1.0  0.84114  0.40357  0.39255  1.0000
  H   H986      1.0  0.72588  0.17932  0.33152  1.0000
  H   H987      1.0  0.65497  0.12557  0.37809  1.0000
  H   H988      1.0  0.78454  0.00156  0.56803  1.0000
  C   C580      1.0  0.81622  0.02644  0.52768  1.0000
  H   H989      1.0  0.66396  0.41296  0.51828  1.0000
  H   H990      1.0  0.58413  0.42524  0.33685  1.0000
  H   H991      1.0  0.91561  0.01132  0.58323  1.0000
  H   H992      1.0  0.82065  0.24775  0.35826  1.0000
  H   H993      1.0  0.76400  0.01461  0.61118  1.0000
  C   C581      1.0  0.68538  0.17112  0.35406  1.0000
  C   C582      1.0  0.60472  0.46811  0.45039  1.0000
  H   H994      1.0  0.87376  0.31194  0.34318  1.0000
  H   H995      1.0  0.86561  0.99676  0.60215  1.0000
  C   C583      1.0  0.86138  0.99031  0.56204  1.0000
  C   C584      1.0  0.66673  0.00622  0.57967  1.0000
  C   C585      1.0  0.84909  0.38028  0.39728  1.0000
  H   H996      1.0  0.66711  0.16596  0.45147  1.0000
  H   H997      1.0  0.63325  0.02575  0.54090  1.0000
  H   H998      1.0  0.65275  0.20793  0.35765  1.0000
  H   H999      1.0  0.80730  0.37878  0.32595  1.0000
  H   H1000     1.0  0.62686  0.44215  0.49445  1.0000
  S   S145      1.0  0.67284  0.08070  0.34382  1.0000
  C   C586      1.0  0.65792  0.40541  0.49924  1.0000
  C   C587      1.0  0.61140  0.11853  0.39514  1.0000
  H   H1001     1.0  0.61399  0.45136  0.40235  1.0000
  H   H1002     1.0  0.58789  0.12755  0.39554  1.0000
  H   H1003     1.0  0.87701  0.08947  0.33423  1.0000
  H   H1004     1.0  0.63976  0.38747  0.50055  1.0000
  H   H1005     1.0  0.58965  0.17777  0.39550  1.0000
  H   H1006     1.0  0.60625  0.21015  0.38087  1.0000
  H   H1007     1.0  0.80446  0.46009  0.62214  1.0000
  H   H1008     1.0  0.66801  0.47806  0.45121  1.0000
  C   C588      1.0  0.55120  0.19143  0.35979  1.0000
  C   C589      1.0  0.81249  0.48346  0.61708  1.0000
  H   H1009     1.0  0.86961  0.47206  0.54139  1.0000
  C   C590      1.0  0.83928  0.26209  0.35007  1.0000
  H   H1010     1.0  0.53942  0.18036  0.37581  1.0000
  H   H1011     1.0  0.62681  0.04226  0.49767  1.0000
  H   H1012     1.0  0.69569  0.03596  0.60194  1.0000
  H   H1013     1.0  0.59306  0.18931  0.33930  1.0000
  H   H1014     1.0  0.58042  0.15346  0.35261  1.0000
  H   H1015     1.0  0.58853  0.45377  0.46157  1.0000
  H   H1016     1.0  0.67434  0.01779  0.56238  1.0000
  H   H1017     1.0  0.64072  0.17596  0.33930  1.0000
  H   H1018     1.0  0.92353  0.46512  0.55188  1.0000
  H   H1019     1.0  0.57281  0.42221  0.42934  1.0000
  H   H1020     1.0  0.59072  0.47736  0.43507  1.0000
  H   H1021     1.0  0.53238  0.02973  0.65276  1.0000
  H   H1022     1.0  0.59776  0.38983  0.42673  1.0000
  H   H1023     1.0  0.59598  0.39224  0.38110  1.0000
  H   H1024     1.0  0.79477  0.01988  0.49162  1.0000
  C   C591      1.0  0.70228  0.18810  0.33325  1.0000
  H   H1025     1.0  0.73111  0.01247  0.33916  1.0000
  H   H1026     1.0  0.60336  0.48673  0.65378  1.0000
  H   H1027     1.0  0.68574  0.00011  0.61651  1.0000
  H   H1028     1.0  0.72590  0.99411  0.54800  1.0000
  H   H1029     1.0  0.62826  0.00316  0.48691  1.0000
  H   H1030     1.0  0.66152  0.02114  0.50068  1.0000
  C   C592      1.0  0.91464  0.48856  0.54932  1.0000
  C   C593      1.0  0.88024  0.48857  0.55449  1.0000
  H   H1031     1.0  0.55712  0.10518  0.71770  1.0000
  H   H1032     1.0  0.53731  0.02735  0.72074  1.0000
  H   H1033     1.0  0.94495  0.34043  0.95338  1.0000
  C   C594      1.0  0.93919  0.35545  0.75589  1.0000
  C   C595      1.0  0.96084  0.06645  0.82014  1.0000
  H   H1034     1.0  0.55516  0.01623  0.67799  1.0000
  H   H1035     1.0  0.63229  0.06579  0.72663  1.0000
  C   C596      1.0  0.51613  0.23667  0.96780  1.0000
  C   C597      1.0  0.51946  0.24052  0.94197  1.0000
  H   H1036     1.0  0.53798  0.01844  0.76072  1.0000
  H   H1037     1.0  0.54211  0.24042  0.93379  1.0000
  C   C598      1.0  0.96525  0.31296  0.77946  1.0000
  H   H1038     1.0  0.49710  0.24857  0.90694  1.0000
  H   H1039     1.0  0.84763  0.39729  0.72365  1.0000
  C   C599      1.0  0.98162  0.10774  0.89124  1.0000
  C   C600      1.0  0.58237  0.46086  0.83154  1.0000
  C   C601      1.0  0.90931  0.39618  0.73553  1.0000
  C   C602      1.0  0.96101  0.38427  0.72129  1.0000
  H   H1040     1.0  0.56027  0.09950  0.74991  1.0000
  H   H1041     1.0  0.60113  0.45289  0.78440  1.0000
  H   H1042     1.0  0.61579  0.10224  0.71952  1.0000
  H   H1043     1.0  0.87740  0.36084  0.74920  1.0000
  H   H1044     1.0  0.55939  0.04985  0.77444  1.0000
  C   C603      1.0  0.51541  0.06333  0.75915  1.0000
  H   H1045     1.0  0.90453  0.38673  0.71668  1.0000
  H   H1046     1.0  0.97406  0.43255  0.71483  1.0000
  H   H1047     1.0  0.96164  0.19969  0.90044  1.0000
  H   H1048     1.0  0.53705  0.40555  0.72269  1.0000
  C   C604      1.0  0.98423  0.07751  0.83915  1.0000
  H   H1049     1.0  0.58471  0.30314  0.98625  1.0000
  C   C605      1.0  0.55535  0.45447  0.75292  1.0000
  H   H1050     1.0  0.95429  0.29519  0.76759  1.0000
  N   N33       1.0  0.52396  0.07277  0.73307  1.0000
  H   H1051     1.0  0.49483  0.13470  0.88268  1.0000
  C   C606      1.0  0.53208  0.02410  0.67280  1.0000
  H   H1052     1.0  0.58258  0.05793  0.70707  1.0000
  H   H1053     1.0  0.56442  0.45435  0.71252  1.0000
  H   H1054     1.0  0.56574  0.45817  0.84709  1.0000
  C   C607      1.0  0.93980  0.41404  0.78701  1.0000
  H   H1055     1.0  0.96605  0.04267  0.81429  1.0000
  H   H1056     1.0  0.93225  0.20863  0.87859  1.0000
  H   H1057     1.0  0.95332  0.36475  0.70940  1.0000
  H   H1058     1.0  0.59954  0.47863  0.83681  1.0000
  H   H1059     1.0  0.53862  0.01377  0.80581  1.0000
  H   H1060     1.0  0.50092  0.06034  0.68119  1.0000
  C   C608      1.0  0.64349  0.47395  0.71611  1.0000
  H   H1061     1.0  0.50205  0.34919  0.96782  1.0000
  H   H1062     1.0  0.58191  0.04448  0.73817  1.0000
  H   H1063     1.0  0.66062  0.45584  0.71285  1.0000
  H   H1064     1.0  0.90850  0.42154  0.73341  1.0000
  C   C609      1.0  0.58275  0.06543  0.72674  1.0000
  H   H1065     1.0  0.51964  0.13451  0.74729  1.0000
  C   C610      1.0  0.95951  0.16938  0.86816  1.0000
  C   C611      1.0  0.52441  0.42708  0.71981  1.0000
  C   C612      1.0  0.62184  0.46449  0.73719  1.0000
  H   H1066     1.0  0.49161  0.15838  0.71267  1.0000
  C   C613      1.0  0.52398  0.03147  0.79751  1.0000
  C   C614      1.0  0.95613  0.20080  0.88041  1.0000
  H   H1067     1.0  0.93776  0.39186  0.79677  1.0000
  C   C615      1.0  0.58810  0.47451  0.78600  1.0000
  C   C616      1.0  0.54472  0.45492  0.72557  1.0000
  H   H1068     1.0  0.59395  0.43865  0.82862  1.0000
  C   C617      1.0  0.95078  0.36341  0.96107  1.0000
  H   H1069     1.0  0.98537  0.33762  0.74923  1.0000
  H   H1070     1.0  0.95500  0.11578  0.84710  1.0000
  H   H1071     1.0  0.95729  0.10142  0.88773  1.0000
  C   C618      1.0  0.52069  0.04531  0.71614  1.0000
  H   H1072     1.0  0.51593  0.21119  0.85582  1.0000
  H   H1073     1.0  0.61544  0.08827  0.75112  1.0000
  H   H1074     1.0  0.95309  0.43352  0.75232  1.0000
  H   H1075     1.0  0.94301  0.15345  0.87726  1.0000
  C   C619      1.0  0.55560  0.08714  0.73220  1.0000
  H   H1076     1.0  0.52565  0.17121  0.85585  1.0000
  H   H1077     1.0  0.53159  0.47577  0.72167  1.0000
  H   H1078     1.0  0.50366  0.42692  0.73186  1.0000
  H   H1079     1.0  0.92943  0.33842  0.74258  1.0000
  C   C620      1.0  0.50108  0.09617  0.72482  1.0000
  H   H1080     1.0  0.96430  0.14473  0.91531  1.0000
  H   H1081     1.0  0.97601  0.36649  0.96105  1.0000
  C   C621      1.0  0.95898  0.43533  0.80342  1.0000
  C   C622      1.0  0.98094  0.20975  0.97550  1.0000
  C   C623      1.0  0.98137  0.12626  0.91601  1.0000
  C   C624      1.0  0.93776  0.36682  0.98733  1.0000
  C   C625      1.0  0.96836  0.23906  0.97584  1.0000
  H   H1082     1.0  0.83265  0.39368  0.75476  1.0000
  C   C626      1.0  0.88140  0.38588  0.75153  1.0000
  H   H1083     1.0  0.95281  0.17130  0.84840  1.0000
  C   C627      1.0  0.96998  0.34275  0.76511  1.0000
  H   H1084     1.0  0.91697  0.42446  0.78545  1.0000
  H   H1085     1.0  0.53430  0.45171  0.76454  1.0000
  C   C628      1.0  0.53065  0.15157  0.95452  1.0000
  C   C629      1.0  0.85241  0.40205  0.74351  1.0000
  H   H1086     1.0  0.98209  0.42582  0.80615  1.0000
  C   C630      1.0  0.96320  0.41323  0.70467  1.0000
  H   H1087     1.0  0.50724  0.10497  0.70609  1.0000
  H   H1088     1.0  0.94991  0.09507  0.93519  1.0000
  H   H1089     1.0  0.94044  0.42061  0.69835  1.0000
  H   H1090     1.0  0.94780  0.43775  0.82187  1.0000
  C   C631      1.0  0.95445  0.41063  0.76095  1.0000
  C   C632      1.0  0.97274  0.10589  0.93799  1.0000
  H   H1091     1.0  0.55250  0.13911  0.95566  1.0000
  N   N34       1.0  0.94067  0.38669  0.74401  1.0000
  C   C633      1.0  0.51163  0.13879  0.93312  1.0000
  H   H1092     1.0  0.92337  0.35509  0.77204  1.0000
  H   H1093     1.0  0.51534  0.00517  0.67591  1.0000
  H   H1094     1.0  0.48989  0.18331  0.84275  1.0000
  H   H1095     1.0  0.61027  0.44286  0.73160  1.0000
  H   H1096     1.0  0.51558  0.08339  0.77187  1.0000
  H   H1097     1.0  0.97514  0.19387  0.99018  1.0000
  H   H1098     1.0  0.98376  0.42815  0.66996  1.0000
  H   H1099     1.0  0.88467  0.39052  0.77148  1.0000
  H   H1100     1.0  0.50871  0.18881  0.89741  1.0000
  H   H1101     1.0  0.54052  0.07063  0.68414  1.0000
  H   H1102     1.0  0.52877  0.30501  0.98128  1.0000
  C   C634      1.0  0.97654  0.25931  0.95650  1.0000
  N   N35       1.0  0.57378  0.48198  0.76149  1.0000
  C   C635      1.0  0.98001  0.11186  0.84569  1.0000
  C   C636      1.0  0.61339  0.08156  0.73131  1.0000
  H   H1103     1.0  0.98161  0.35922  0.77768  1.0000
  H   H1104     1.0  0.52495  0.14260  0.91582  1.0000
  H   H1105     1.0  0.96124  0.45842  0.79502  1.0000
  H   H1106     1.0  0.95092  0.31684  0.79625  1.0000
  H   H1107     1.0  0.57190  0.34194  0.98289  1.0000
  H   H1108     1.0  0.85482  0.42718  0.74632  1.0000
  H   H1109     1.0  0.49800  0.03395  0.71916  1.0000
  C   C637      1.0  0.52333  0.05233  0.68797  1.0000
  H   H1110     1.0  0.53609  0.17615  0.95144  1.0000
  H   H1111     1.0  0.97152  0.21788  0.87145  1.0000
  C   C638      1.0  0.49110  0.18418  0.88319  1.0000
  H   H1112     1.0  0.91253  0.36476  0.98589  1.0000
  S   S146      1.0  0.54955  0.23113  0.98615  1.0000
  H   H1113     1.0  0.93743  0.06675  0.82823  1.0000
  C   C639      1.0  0.53625  0.03984  0.77173  1.0000
  H   H1114     1.0  0.97185  0.12000  0.95517  1.0000
  H   H1115     1.0  0.98187  0.06289  0.85583  1.0000
  H   H1116     1.0  0.63599  0.45980  0.75367  1.0000
  H   H1117     1.0  0.56818  0.43295  0.75565  1.0000
  C   C640      1.0  0.56555  0.47025  0.80814  1.0000
  H   H1118     1.0  0.96162  0.08121  0.80344  1.0000
  H   H1119     1.0  0.52404  0.05190  0.80984  1.0000
  H   H1120     1.0  0.51705  0.42787  0.70018  1.0000
  H   H1121     1.0  0.54819  0.45221  0.80409  1.0000
  H   H1122     1.0  0.94092  0.38102  0.94885  1.0000
  H   H1123     1.0  0.97932  0.40681  0.76321  1.0000
  H   H1124     1.0  0.50030  0.02216  0.79645  1.0000
  H   H1125     1.0  0.96708  0.28203  0.95642  1.0000
  H   H1126     1.0  0.97255  0.38832  0.67029  1.0000
  H   H1127     1.0  0.98784  0.12529  0.82925  1.0000
  C   C641      1.0  0.49388  0.24492  0.92661  1.0000
  C   C642      1.0  0.98264  0.40720  0.68153  1.0000
  H   H1128     1.0  0.50889  0.11376  0.93596  1.0000
  H   H1129     1.0  0.63049  0.17132  0.99060  1.0000
  C   C643      1.0  0.49719  0.12459  0.74190  1.0000
  H   H1130     1.0  0.51823  0.14905  0.97247  1.0000
  H   H1131     1.0  0.49159  0.05399  0.75956  1.0000
  H   H1132     1.0  0.63063  0.47710  0.69870  1.0000
  C   C644      1.0  0.50659  0.18755  0.85783  1.0000
  H   H1133     1.0  0.98489  0.37917  0.72658  1.0000
  H   H1134     1.0  0.98773  0.30437  0.78556  1.0000
  C   C645      1.0  0.87364  0.52231  0.20428  1.0000
  S   S147      1.0  0.51771  0.53332  0.16258  1.0000
  N   N36       1.0  0.54830  0.87394  0.25446  1.0000
  C   C646      1.0  0.84624  0.55304  0.26800  1.0000
  S   S148      1.0  0.93830  0.94727  0.17566  1.0000
  H   H1135     1.0  0.82681  0.94345  0.25825  1.0000
  S   S149      1.0  0.95977  0.54776  0.20156  1.0000
  Fe  Fe74      1.0  0.55290  0.71208  0.12661  1.0000
  S   S150      1.0  0.58011  0.69807  0.09319  1.0000
  S   S151      1.0  0.52582  0.67959  0.15233  1.0000
  Fe  Fe75      1.0  0.57106  0.78067  0.12044  1.0000
  S   S152      1.0  0.59905  0.77005  0.08594  1.0000
  S   S153      1.0  0.57806  0.82916  0.13701  1.0000
  Fe  Fe76      1.0  0.55926  0.73922  0.07463  1.0000
  S   S154      1.0  0.54310  0.73289  0.03402  1.0000
  Fe  Fe77      1.0  0.61738  0.72998  0.10702  1.0000
  S   S155      1.0  0.66622  0.71339  0.11497  1.0000
  S   S156      1.0  0.53037  0.75217  0.10784  1.0000
  S   S157      1.0  0.59093  0.74166  0.14172  1.0000
  Fe  Fe78      1.0  0.91955  0.74576  0.07859  1.0000
  S   S158      1.0  0.94079  0.73314  0.11523  1.0000
  S   S159      1.0  0.94512  0.76041  0.04245  1.0000
  Fe  Fe79      1.0  0.85376  0.74589  0.10215  1.0000
  S   S160      1.0  0.87129  0.73358  0.13988  1.0000
  S   S161      1.0  0.80413  0.75728  0.09111  1.0000
  Fe  Fe80      1.0  0.90928  0.76838  0.13254  1.0000
  S   S162      1.0  0.92511  0.80099  0.16400  1.0000
  Fe  Fe81      1.0  0.90146  0.69929  0.12017  1.0000
  S   S163      1.0  0.90017  0.64715  0.12873  1.0000
  S   S164      1.0  0.89005  0.78250  0.09599  1.0000
  S   S165      1.0  0.88198  0.71026  0.08243  1.0000
  H   H1136     1.0  0.63094  0.53026  0.27930  1.0000
  H   H1137     1.0  0.61068  0.53636  0.23665  1.0000
  H   H1138     1.0  0.91226  0.90880  0.13774  1.0000
  H   H1139     1.0  0.78605  0.79557  0.13488  1.0000
  C   C647      1.0  0.55602  0.85781  0.15247  1.0000
  C   C648      1.0  0.57032  0.88581  0.15896  1.0000
  C   C649      1.0  0.55425  0.90897  0.17178  1.0000
  C   C650      1.0  0.52345  0.90456  0.17822  1.0000
  C   C651      1.0  0.59641  0.52771  0.19002  1.0000
  C   C652      1.0  0.52523  0.85342  0.15888  1.0000
  H   H1140     1.0  0.59397  0.88974  0.15387  1.0000
  H   H1141     1.0  0.56559  0.93034  0.17648  1.0000
  H   H1142     1.0  0.95928  0.89586  0.20621  1.0000
  H   H1143     1.0  0.97168  0.79163  0.00038  1.0000
  C   C653      1.0  0.70421  0.72669  0.10826  1.0000
  C   C654      1.0  0.71109  0.74665  0.08872  1.0000
  C   C655      1.0  0.74171  0.75572  0.08381  1.0000
  C   C656      1.0  0.76592  0.74504  0.09831  1.0000
  C   C657      1.0  0.75892  0.72555  0.11812  1.0000
  C   C658      1.0  0.72839  0.71624  0.12290  1.0000
  H   H1144     1.0  0.69290  0.75471  0.07711  1.0000
  H   H1145     1.0  0.74671  0.77092  0.06849  1.0000
  H   H1146     1.0  0.77701  0.71791  0.12989  1.0000
  H   H1147     1.0  0.72344  0.70091  0.13814  1.0000
  H   H1148     1.0  0.86136  0.51735  0.29399  1.0000
  H   H1149     1.0  0.49322  0.64013  0.18609  1.0000
  H   H1150     1.0  0.89413  0.90688  0.29050  1.0000
  H   H1151     1.0  0.57881  0.86158  0.20849  1.0000
  H   H1152     1.0  0.82116  0.90361  0.30493  1.0000
  H   H1153     1.0  0.65007  0.73545  0.16904  1.0000
  C   C659      1.0  0.60598  0.61022  0.21561  1.0000
  C   C660      1.0  0.94300  0.57484  0.18088  1.0000
  C   C661      1.0  0.92327  0.56616  0.16170  1.0000
  C   C662      1.0  0.91049  0.58855  0.14612  1.0000
  C   C663      1.0  0.91731  0.62002  0.14917  1.0000
  C   C664      1.0  0.93687  0.62870  0.16845  1.0000
  C   C665      1.0  0.94945  0.60633  0.18416  1.0000
  H   H1154     1.0  0.91804  0.54217  0.15875  1.0000
  H   H1155     1.0  0.89545  0.58137  0.13137  1.0000
  H   H1156     1.0  0.94242  0.65267  0.17123  1.0000
  C   C666      1.0  0.85663  0.52506  0.22949  1.0000
  C   C667      1.0  0.84530  0.89671  0.25662  1.0000
  C   C668      1.0  0.93572  0.90649  0.17263  1.0000
  C   C669      1.0  0.92123  0.89376  0.15168  1.0000
  C   C670      1.0  0.91817  0.86170  0.14851  1.0000
  C   C671      1.0  0.92954  0.84174  0.16632  1.0000
  C   C672      1.0  0.94411  0.85451  0.18725  1.0000
  C   C673      1.0  0.94742  0.88658  0.19031  1.0000
  H   H1157     1.0  0.63256  0.76702  0.18553  1.0000
  H   H1158     1.0  0.90693  0.85239  0.13230  1.0000
  C   C674      1.0  0.87505  0.57898  0.23475  1.0000
  H   H1159     1.0  0.51504  0.61947  0.07370  1.0000
  C   C675      1.0  0.84022  0.52469  0.28472  1.0000
  C   C676      1.0  0.51982  0.57408  0.16028  1.0000
  C   C677      1.0  0.53768  0.58743  0.14121  1.0000
  C   C678      1.0  0.54002  0.61955  0.13854  1.0000
  C   C679      1.0  0.52400  0.63886  0.15468  1.0000
  H   H1160     1.0  0.89823  0.55771  0.29482  1.0000
  C   C680      1.0  0.50385  0.59341  0.17641  1.0000
  H   H1161     1.0  0.54994  0.57277  0.12846  1.0000
  H   H1162     1.0  0.55411  0.62934  0.12395  1.0000
  C   C681      1.0  0.86952  0.84147  0.22590  1.0000
  C   C682      1.0  0.61622  0.56123  0.23595  1.0000
  H   H1163     1.0  0.55735  0.66530  0.04668  1.0000
  H   H1164     1.0  0.66045  0.74372  0.20059  1.0000
  H   H1165     1.0  0.86818  0.82535  0.18756  1.0000
  H   H1166     1.0  0.65732  0.90012  0.16898  1.0000
  H   H1167     1.0  0.86871  0.63831  0.21773  1.0000
  H   H1168     1.0  0.83163  0.82438  0.20345  1.0000
  N   N37       1.0  0.80376  0.64387  0.07993  1.0000
  C   C683      1.0  0.80953  0.60998  0.08212  1.0000
  C   C684      1.0  0.77024  0.64962  0.07533  1.0000
  C   C685      1.0  0.82178  0.65528  0.05764  1.0000
  C   C686      1.0  0.81473  0.66136  0.10242  1.0000
  C   C687      1.0  0.80017  0.65195  0.12756  1.0000
  C   C688      1.0  0.84296  0.60082  0.08745  1.0000
  C   C689      1.0  0.81490  0.68830  0.04887  1.0000
  C   C690      1.0  0.74647  0.62773  0.08778  1.0000
  C   C691      1.0  0.71400  0.63951  0.08483  1.0000
  C   C692      1.0  0.81693  0.66680  0.14933  1.0000
  C   C693      1.0  0.84594  0.56605  0.08862  1.0000
  C   C694      1.0  0.83431  0.69688  0.02617  1.0000
  H   H1169     1.0  0.80220  0.59805  0.06481  1.0000
  H   H1170     1.0  0.79549  0.59945  0.09708  1.0000
  H   H1171     1.0  0.76449  0.67361  0.08059  1.0000
  H   H1172     1.0  0.76522  0.64762  0.05515  1.0000
  H   H1173     1.0  0.81798  0.63979  0.04144  1.0000
  H   H1174     1.0  0.84673  0.65492  0.06134  1.0000
  H   H1175     1.0  0.84000  0.66001  0.10400  1.0000
  H   H1176     1.0  0.81036  0.68620  0.10037  1.0000
  H   H1177     1.0  0.80068  0.62691  0.13047  1.0000
  H   H1178     1.0  0.77620  0.65979  0.12845  1.0000
  H   H1179     1.0  0.85896  0.60912  0.07285  1.0000
  H   H1180     1.0  0.85045  0.61016  0.10559  1.0000
  H   H1181     1.0  0.82012  0.70512  0.06359  1.0000
  H   H1182     1.0  0.79064  0.69098  0.04369  1.0000
  H   H1183     1.0  0.74734  0.60481  0.07877  1.0000
  H   H1184     1.0  0.75057  0.62468  0.10778  1.0000
  H   H1185     1.0  0.71143  0.66189  0.09439  1.0000
  H   H1186     1.0  0.70840  0.64223  0.06493  1.0000
  H   H1187     1.0  0.69738  0.62306  0.09322  1.0000
  H   H1188     1.0  0.80466  0.66137  0.16689  1.0000
  H   H1189     1.0  0.84050  0.65797  0.15057  1.0000
  H   H1190     1.0  0.81805  0.69202  0.14730  1.0000
  H   H1191     1.0  0.83909  0.55532  0.07077  1.0000
  H   H1192     1.0  0.87011  0.56018  0.09219  1.0000
  H   H1193     1.0  0.83158  0.55651  0.10389  1.0000
  C   C695      1.0  0.60805  0.93648  0.23345  1.0000
  H   H1194     1.0  0.87173  0.49574  0.17025  1.0000
  H   H1195     1.0  0.83485  0.50371  0.18373  1.0000
  C   C696      1.0  0.87582  0.92998  0.22716  1.0000
  H   H1196     1.0  0.95941  0.90984  0.26898  1.0000
  H   H1197     1.0  0.51378  0.83215  0.15402  1.0000
  H   H1198     1.0  0.55441  0.82499  0.25387  1.0000
  C   C697      1.0  0.89917  0.53736  0.25715  1.0000
  H   H1199     1.0  0.59014  0.56676  0.27053  1.0000
  H   H1200     1.0  0.82435  0.88939  0.24651  1.0000
  H   H1201     1.0  0.59377  0.49216  0.16186  1.0000
  H   H1202     1.0  0.56218  0.60479  0.25596  1.0000
  H   H1203     1.0  0.65972  0.55962  0.27352  1.0000
  H   H1204     1.0  0.85645  0.83702  0.24326  1.0000
  H   H1205     1.0  0.84903  0.87833  0.27046  1.0000
  C   C698      1.0  0.81213  0.91947  0.29083  1.0000
  H   H1206     1.0  0.78417  0.82252  0.16039  1.0000
  H   H1207     1.0  0.85604  0.93738  0.28028  1.0000
  H   H1208     1.0  0.89776  0.93151  0.21658  1.0000
  H   H1209     1.0  0.83689  0.63110  0.19744  1.0000
  H   H1210     1.0  0.88578  0.87932  0.20362  1.0000
  H   H1211     1.0  0.91649  0.53664  0.24197  1.0000
  H   H1212     1.0  0.52747  0.86181  0.28985  1.0000
  C   C699      1.0  0.56289  0.57239  0.22397  1.0000
  C   C700      1.0  0.60264  0.56264  0.19227  1.0000
  H   H1213     1.0  0.58149  0.65130  0.20459  1.0000
  H   H1214     1.0  0.79900  0.83444  0.13061  1.0000
  S   S166      1.0  0.50196  0.93250  0.19506  1.0000
  H   H1215     1.0  0.63133  0.88369  0.19145  1.0000
  C   C701      1.0  0.60928  0.63800  0.17358  1.0000
  H   H1216     1.0  0.88274  0.59652  0.24839  1.0000
  H   H1217     1.0  0.90106  0.86797  0.25964  1.0000
  C   C702      1.0  0.51593  0.87032  0.24522  1.0000
  N   N38       1.0  0.69213  0.81750  0.14133  1.0000
  C   C703      1.0  0.67163  0.79094  0.14877  1.0000
  C   C704      1.0  0.68622  0.82536  0.11457  1.0000
  C   C705      1.0  0.72481  0.80690  0.14283  1.0000
  C   C706      1.0  0.68831  0.84527  0.15792  1.0000
  C   C707      1.0  0.65618  0.85023  0.16969  1.0000
  C   C708      1.0  0.67971  0.77540  0.17363  1.0000
  C   C709      1.0  0.74960  0.82890  0.13200  1.0000
  C   C710      1.0  0.65335  0.83470  0.10806  1.0000
  C   C711      1.0  0.64986  0.83861  0.08009  1.0000
  C   C712      1.0  0.65422  0.88135  0.18263  1.0000
  C   C713      1.0  0.65402  0.75416  0.18271  1.0000
  C   C714      1.0  0.78159  0.81975  0.14005  1.0000
  H   H1218     1.0  0.67224  0.77287  0.13422  1.0000
  H   H1219     1.0  0.64727  0.79754  0.14962  1.0000
  H   H1220     1.0  0.70102  0.84484  0.10847  1.0000
  H   H1221     1.0  0.69236  0.80561  0.10244  1.0000
  H   H1222     1.0  0.72741  0.78451  0.13310  1.0000
  H   H1223     1.0  0.73111  0.80267  0.16244  1.0000
  H   H1224     1.0  0.70434  0.84453  0.17381  1.0000
  H   H1225     1.0  0.69486  0.86646  0.14766  1.0000
  H   H1226     1.0  0.65111  0.83249  0.18383  1.0000
  H   H1227     1.0  0.63784  0.84894  0.15583  1.0000
  H   H1228     1.0  0.70035  0.76114  0.17109  1.0000
  H   H1229     1.0  0.68453  0.79265  0.18828  1.0000
  H   H1230     1.0  0.74580  0.85285  0.13807  1.0000
  H   H1231     1.0  0.74927  0.82793  0.11140  1.0000
  H   H1232     1.0  0.63644  0.81712  0.11395  1.0000
  H   H1233     1.0  0.64783  0.85698  0.11680  1.0000
  H   H1234     1.0  0.62603  0.84526  0.07600  1.0000
  H   H1235     1.0  0.66563  0.85677  0.07304  1.0000
  H   H1236     1.0  0.65457  0.81676  0.07023  1.0000
  H   H1237     1.0  0.67182  0.88359  0.19724  1.0000
  H   H1238     1.0  0.61829  0.59688  0.26524  1.0000
  C   C715      1.0  0.83639  0.92630  0.27100  1.0000
  C   C716      1.0  0.91360  0.55669  0.27841  1.0000
  H   H1239     1.0  0.81292  0.51099  0.31665  1.0000
  H   H1240     1.0  0.93991  0.51939  0.29383  1.0000
  H   H1241     1.0  0.54351  0.61821  0.22883  1.0000
  H   H1242     1.0  0.57559  0.83865  0.29607  1.0000
  H   H1243     1.0  0.54971  0.92346  0.25140  1.0000
  H   H1244     1.0  0.59608  0.65230  0.16061  1.0000
  C   C717      1.0  0.59614  0.90912  0.24834  1.0000
  H   H1245     1.0  0.61020  0.88931  0.24288  1.0000
  Fe  Fe82      1.0  0.50619  0.49890  0.19379  1.0000
  C   C718      1.0  0.54988  0.64197  0.05244  1.0000
  C   C719      1.0  0.58909  0.62952  0.19590  1.0000
  H   H1246     1.0  0.60275  0.62220  0.23355  1.0000
  H   H1247     1.0  0.56882  0.63132  0.06271  1.0000
  H   H1248     1.0  0.87308  0.61361  0.19097  1.0000
  C   C720      1.0  0.84727  0.59306  0.22155  1.0000
  N   N39       1.0  0.87243  0.89892  0.23910  1.0000
  H   H1249     1.0  0.54258  0.89970  0.28863  1.0000
  H   H1250     1.0  0.55758  0.90416  0.22353  1.0000
  C   C721      1.0  0.97389  0.71574  0.01286  1.0000
  H   H1251     1.0  0.94776  0.92032  0.29991  1.0000
  H   H1252     1.0  0.62959  0.65152  0.17960  1.0000
  C   C722      1.0  0.90173  0.89164  0.25224  1.0000
  C   C723      1.0  0.54778  0.59764  0.24018  1.0000
  H   H1253     1.0  0.49108  0.89504  0.27511  1.0000
  C   C724      1.0  0.56170  0.90313  0.24379  1.0000
  H   H1254     1.0  0.50648  0.84730  0.25021  1.0000
  H   H1255     1.0  0.63110  0.61210  0.21222  1.0000
  C   C725      1.0  0.86824  0.87568  0.21845  1.0000
  H   H1256     1.0  0.89442  0.57723  0.22126  1.0000
  H   H1257     1.0  0.79133  0.90921  0.28236  1.0000
  H   H1258     1.0  0.54517  0.62802  0.03560  1.0000
  H   H1259     1.0  0.83118  0.50511  0.27371  1.0000
  H   H1260     1.0  0.57795  0.79247  0.21906  1.0000
  H   H1261     1.0  0.58366  0.52937  0.15097  1.0000
  H   H1262     1.0  0.87775  0.94849  0.24120  1.0000
  H   H1263     1.0  0.90911  0.93659  0.27054  1.0000
  H   H1264     1.0  0.58906  0.84600  0.25320  1.0000
  H   H1265     1.0  0.86018  0.79637  0.21036  1.0000
  H   H1266     1.0  0.59987  0.91479  0.26815  1.0000
  C   C726      1.0  0.54707  0.87573  0.28251  1.0000
  H   H1267     1.0  0.96463  0.61352  0.19885  1.0000
  N   N40       1.0  0.86923  0.54866  0.24735  1.0000
  H   H1268     1.0  0.82511  0.55051  0.31720  1.0000
  H   H1269     1.0  0.98060  0.93117  0.12178  1.0000
  C   C727      1.0  0.58807  0.81378  0.21113  1.0000
  C   C728      1.0  0.85008  0.93832  0.20886  1.0000
  H   H1270     1.0  0.79459  0.53803  0.29682  1.0000
  H   H1271     1.0  0.54553  0.83682  0.20918  1.0000
  C   C729      1.0  0.61339  0.57207  0.26323  1.0000
  H   H1272     1.0  0.92120  0.89247  0.23881  1.0000
  H   H1273     1.0  0.83180  0.97760  0.18992  1.0000
  H   H1274     1.0  0.80569  0.94107  0.30036  1.0000
  H   H1275     1.0  0.54553  0.82256  0.99478  1.0000
  H   H1276     1.0  0.84587  0.87885  0.20928  1.0000
  H   H1277     1.0  0.91880  0.58036  0.27222  1.0000
  H   H1278     1.0  0.58835  0.57336  0.17785  1.0000
  Fe  Fe83      1.0  0.95104  0.98214  0.20636  1.0000
  C   C730      1.0  0.63580  0.55527  0.27972  1.0000
  H   H1279     1.0  0.89366  0.83478  0.22864  1.0000
  H   H1280     1.0  0.83023  0.60091  0.23547  1.0000
  H   H1281     1.0  0.85277  0.92513  0.19132  1.0000
  H   H1282     1.0  0.87324  0.54399  0.19374  1.0000
  C   C731      1.0  0.50911  0.87665  0.17157  1.0000
  H   H1283     1.0  0.50620  0.60585  0.26124  1.0000
  H   H1284     1.0  0.58945  0.81099  0.19066  1.0000
  H   H1285     1.0  0.63304  0.93928  0.23615  1.0000
  H   H1286     1.0  0.89780  0.51624  0.20715  1.0000
  C   C732      1.0  0.85651  0.82072  0.20555  1.0000
  H   H1287     1.0  0.52007  0.56738  0.26353  1.0000
  H   H1288     1.0  0.52781  0.65586  0.08625  1.0000
  C   C733      1.0  0.96667  0.74664  0.01622  1.0000
  H   H1289     1.0  0.82718  0.93293  0.21676  1.0000
  C   C734      1.0  0.52148  0.64344  0.06909  1.0000
  H   H1290     1.0  0.85295  0.57275  0.28001  1.0000
  H   H1291     1.0  0.55937  0.54993  0.23337  1.0000
  C   C735      1.0  0.51699  0.58689  0.25072  1.0000
  H   H1292     1.0  0.94398  0.88103  0.28980  1.0000
  H   H1293     1.0  0.57302  0.52195  0.19663  1.0000
  H   H1294     1.0  0.82875  0.68166  0.01025  1.0000
  C   C736      1.0  0.59955  0.51692  0.16312  1.0000
  H   H1295     1.0  0.61158  0.81722  0.21827  1.0000
  H   H1296     1.0  0.85696  0.50186  0.23797  1.0000
  C   C737      1.0  0.50912  0.73698  0.01594  1.0000
  H   H1297     1.0  0.89686  0.51323  0.26355  1.0000
  H   H1298     1.0  0.64068  0.56310  0.23017  1.0000
  H   H1299     1.0  0.61298  0.51447  0.20092  1.0000
  C   C738      1.0  0.50584  0.62551  0.17355  1.0000
  H   H1300     1.0  0.61684  0.61730  0.16341  1.0000
  C   C739      1.0  0.57513  0.86407  0.29690  1.0000
  H   H1301     1.0  0.96629  0.69917  0.02650  1.0000
  C   C740      1.0  0.85717  0.62071  0.20603  1.0000
  C   C741      1.0  0.94364  0.54309  0.28695  1.0000
  H   H1302     1.0  0.62684  0.56693  0.18653  1.0000
  Fe  Fe84      1.0  0.96105  0.49522  0.20787  1.0000
  H   H1303     1.0  0.82963  0.72088  0.02084  1.0000
  N   N41       1.0  0.59631  0.57697  0.21734  1.0000
  H   H1304     1.0  0.83212  0.52923  0.22563  1.0000
  C   C742      1.0  0.94226  0.90525  0.28387  1.0000
  C   C743      1.0  0.91004  0.91191  0.27485  1.0000
  H   H1305     1.0  0.83581  0.57652  0.20896  1.0000
  H   H1306     1.0  0.54876  0.57042  0.20701  1.0000
  H   H1307     1.0  0.59704  0.87280  0.28925  1.0000
  H   H1308     1.0  0.56809  0.61789  0.18926  1.0000
  S   S167      1.0  0.50332  0.50893  0.23459  1.0000
  H   H1309     1.0  0.82374  0.55934  0.26025  1.0000
  S   S168      1.0  0.95525  0.97485  0.24729  1.0000
  H   H1310     1.0  0.95320  0.83940  0.20110  1.0000
  H   H1311     1.0  0.85904  0.69525  0.03030  1.0000
  H   H1312     1.0  0.72190  0.98366  0.31637  1.0000
  C   C744      1.0  0.56548  0.84596  0.24598  1.0000
  C   C745      1.0  0.56823  0.84126  0.21750  1.0000
  S   S169      1.0  0.50148  0.98082  0.25598  1.0000
  H   H1313     1.0  0.62332  0.52056  0.15628  1.0000
  H   H1314     1.0  0.59699  0.95767  0.24010  1.0000
  Fe  Fe85      1.0  0.51218  0.97848  0.21485  1.0000
  H   H1315     1.0  0.51536  0.87155  0.22466  1.0000
  C   C746      1.0  0.81676  0.53165  0.30503  1.0000
  H   H1316     1.0  0.60363  0.93330  0.21336  1.0000
  H   H1317     1.0  0.50138  0.57981  0.23556  1.0000
  H   H1318     1.0  0.49970  0.91740  0.24805  1.0000
  H   H1319     1.0  0.94745  0.97799  0.11844  1.0000
  C   C747      1.0  0.85878  0.49769  0.18797  1.0000
  H   H1320     1.0  0.50369  0.68129  0.04798  1.0000
  H   H1321     1.0  0.95324  0.55719  0.30226  1.0000
  C   C748      1.0  0.85136  0.97212  0.20198  1.0000
  C   C749      1.0  0.97701  0.76769  0.99811  1.0000
  H   H1322     1.0  0.96056  0.54293  0.27145  1.0000
  H   H1323     1.0  0.63331  0.56333  0.29918  1.0000
  C   C750      1.0  0.49498  0.65911  0.05558  1.0000
  C   C751      1.0  0.49280  0.89442  0.25460  1.0000
  C   C752      1.0  0.57352  0.87350  0.32420  1.0000
  H   H1324     1.0  0.87279  0.97710  0.19153  1.0000
  H   H1325     1.0  0.85027  0.98684  0.21882  1.0000
  H   H1326     1.0  0.49036  0.64419  0.03927  1.0000
  H   H1327     1.0  0.48886  0.67669  0.10492  1.0000
  H   H1328     1.0  0.48956  0.58359  0.19086  1.0000
  Fe  Fe86      1.0  0.74123  0.85259  0.60972  1.0000
  H   H1329     1.0  0.84359  0.87966  0.53083  1.0000
  S   S170      1.0  0.75985  0.80339  0.60860  1.0000
  Fe  Fe87      1.0  0.73660  0.91311  0.57901  1.0000
  S   S171      1.0  0.72511  0.94088  0.61304  1.0000
  S   S172      1.0  0.74102  0.92936  0.53830  1.0000
  Fe  Fe88      1.0  0.76218  0.91412  0.63209  1.0000
  H   H1330     1.0  0.80244  0.53353  0.58521  1.0000
  Fe  Fe89      1.0  0.69321  0.90194  0.62360  1.0000
  S   S173      1.0  0.64140  0.90743  0.63086  1.0000
  S   S174      1.0  0.77555  0.88889  0.59748  1.0000
  S   S175      1.0  0.70349  0.87481  0.58864  1.0000
  Fe  Fe90      1.0  0.72073  0.61561  0.60976  1.0000
  S   S176      1.0  0.70471  0.66582  0.61168  1.0000
  Fe  Fe91      1.0  0.73047  0.55800  0.57559  1.0000
  S   S177      1.0  0.73756  0.52766  0.60861  1.0000
  S   S178      1.0  0.73642  0.54537  0.53391  1.0000
  Fe  Fe92      1.0  0.69699  0.55215  0.62617  1.0000
  H   H1331     1.0  0.80829  0.79471  0.65702  1.0000
  Fe  Fe93      1.0  0.76703  0.56585  0.62461  1.0000
  C   C753      1.0  0.82931  0.61384  0.55292  1.0000
  S   S179      1.0  0.68884  0.58056  0.59221  1.0000
  S   S180      1.0  0.76155  0.59536  0.59062  1.0000
  H   H1332     1.0  0.83661  0.88607  0.56338  1.0000
  C   C754      1.0  0.73258  0.51306  0.51335  1.0000
  C   C755      1.0  0.73700  0.51737  0.48764  1.0000
  H   H1333     1.0  0.74211  0.54012  0.48080  1.0000
  H   H1334     1.0  0.83402  0.93353  0.52182  1.0000
  C   C756      1.0  0.82487  0.55630  0.54669  1.0000
  H   H1335     1.0  0.84708  0.92431  0.62522  1.0000
  H   H1336     1.0  0.59330  0.86408  0.33423  1.0000
  H   H1337     1.0  0.90343  0.92890  0.63039  1.0000
  C   C757      1.0  0.52321  0.54941  0.61825  1.0000
  S   S181      1.0  0.81816  0.56474  0.63605  1.0000
  H   H1338     1.0  0.67819  0.52882  0.43314  1.0000
  H   H1339     1.0  0.54798  0.97421  0.59615  1.0000
  C   C758      1.0  0.49392  0.60100  0.64968  1.0000
  H   H1340     1.0  0.83717  0.63216  0.56581  1.0000
  H   H1341     1.0  0.80604  0.89030  0.54138  1.0000
  C   C759      1.0  0.74381  0.76539  0.60907  1.0000
  C   C760      1.0  0.76348  0.74021  0.60682  1.0000
  C   C761      1.0  0.75212  0.70971  0.60758  1.0000
  C   C762      1.0  0.72077  0.70383  0.61062  1.0000
  C   C763      1.0  0.70115  0.72903  0.61295  1.0000
  C   C764      1.0  0.71250  0.75953  0.61220  1.0000
  H   H1342     1.0  0.78773  0.74430  0.60441  1.0000
  H   H1343     1.0  0.76757  0.69074  0.60573  1.0000
  C   C765      1.0  0.88846  0.93288  0.64610  1.0000
  H   H1344     1.0  0.69699  0.77845  0.61406  1.0000
  H   H1345     1.0  0.82057  0.87300  0.63728  1.0000
  H   H1346     1.0  0.60781  0.92292  0.54912  1.0000
  H   H1347     1.0  0.58110  0.55283  0.59688  1.0000
  C   C766      1.0  0.73860  0.98437  0.47699  1.0000
  C   C767      1.0  0.60405  0.97594  0.57055  1.0000
  N   N42       1.0  0.83304  0.52417  0.55419  1.0000
  C   C768      1.0  0.63724  0.97596  0.53278  1.0000
  H   H1348     1.0  0.70389  0.50545  0.41505  1.0000
  H   H1349     1.0  0.78563  0.96355  0.59914  1.0000
  H   H1350     1.0  0.79648  0.50021  0.62533  1.0000
  H   H1351     1.0  0.58091  0.57834  0.62338  1.0000
  H   H1352     1.0  0.53092  0.57443  0.58357  1.0000
  N   N43       1.0  0.48930  0.55074  0.62396  1.0000
  H   H1353     1.0  0.87597  0.86922  0.62526  1.0000
  H   H1354     1.0  0.66176  0.97504  0.52704  1.0000
  H   H1355     1.0  0.82914  0.58093  0.58238  1.0000
  H   H1356     1.0  0.88357  0.57172  0.63616  1.0000
  C   C769      1.0  0.61582  0.92194  0.65419  1.0000
  S   S182      1.0  0.72920  0.87712  0.64531  1.0000
  H   H1357     1.0  0.82791  0.93925  0.57878  1.0000
  H   H1358     1.0  0.62749  0.87448  0.52972  1.0000
  H   H1359     1.0  0.79764  0.94304  0.55792  1.0000
  H   H1360     1.0  0.79955  0.55874  0.54655  1.0000
  H   H1361     1.0  0.51938  0.49389  0.63688  1.0000
  C   C770      1.0  0.87787  0.55466  0.64999  1.0000
  C   C771      1.0  0.83092  0.89386  0.54448  1.0000
  H   H1362     1.0  0.84589  0.51126  0.50468  1.0000
  S   S183      1.0  0.72716  0.58799  0.64466  1.0000
  H   H1363     1.0  0.67688  0.72492  0.61532  1.0000
  H   H1364     1.0  0.84085  0.52841  0.59377  1.0000
  H   H1365     1.0  0.80417  0.61552  0.55099  1.0000
  C   C772      1.0  0.83802  0.58258  0.56310  1.0000
  H   H1366     1.0  0.83273  0.56112  0.52742  1.0000
  H   H1367     1.0  0.55217  0.86458  0.33301  1.0000
  H   H1368     1.0  0.58420  0.96917  0.55884  1.0000
  H   H1369     1.0  0.74757  0.93708  0.48558  1.0000
  C   C773      1.0  0.83974  0.92756  0.54116  1.0000
  H   H1370     1.0  0.64454  0.86831  0.55968  1.0000
  H   H1371     1.0  0.66769  0.86659  0.53193  1.0000
  C   C774      1.0  0.83148  0.85029  0.63636  1.0000
  S   S184      1.0  0.65715  0.52318  0.64297  1.0000
  H   H1372     1.0  0.57434  0.89886  0.32602  1.0000
  C   C775      1.0  0.59686  0.96526  0.59743  1.0000
  H   H1373     1.0  0.59392  0.53095  0.49005  1.0000
  C   C776      1.0  0.63006  0.92957  0.55762  1.0000
  H   H1374     1.0  0.53093  0.59895  0.61019  1.0000
  H   H1375     1.0  0.51925  0.60245  0.64980  1.0000
  H   H1376     1.0  0.82177  0.97537  0.61086  1.0000
  C   C777      1.0  0.65559  0.91266  0.54305  1.0000
  H   H1377     1.0  0.56358  0.97247  0.62687  1.0000
  H   H1378     1.0  0.73873  0.49647  0.45108  1.0000
  H   H1379     1.0  0.86912  0.82996  0.61564  1.0000
  C   C778      1.0  0.85646  0.93026  0.64308  1.0000
  C   C779      1.0  0.64826  0.87843  0.54102  1.0000
  C   C780      1.0  0.82245  0.94794  0.56009  1.0000
  H   H1380     1.0  0.68190  0.96326  0.56526  1.0000
  H   H1381     1.0  0.92677  0.50424  0.56232  1.0000
  H   H1382     1.0  0.91962  0.49575  0.52995  1.0000
  C   C781      1.0  0.66081  0.97178  0.57444  1.0000
  H   H1383     1.0  0.62981  0.91945  0.57653  1.0000
  C   C782      1.0  0.53787  0.57622  0.60330  1.0000
  H   H1384     1.0  0.56951  0.51763  0.46540  1.0000
  H   H1385     1.0  0.84023  0.61771  0.53451  1.0000
  H   H1386     1.0  0.63352  0.50202  0.41390  1.0000
  N   N44       1.0  0.82817  0.98200  0.55813  1.0000
  H   H1387     1.0  0.58279  0.59370  0.59250  1.0000
  H   H1388     1.0  0.67765  0.91532  0.55269  1.0000
  H   H1389     1.0  0.65868  0.92140  0.52392  1.0000
  H   H1390     1.0  0.86329  0.58214  0.56367  1.0000
  H   H1391     1.0  0.81492  0.83372  0.62833  1.0000
  C   C783      1.0  0.58654  0.51046  0.47927  1.0000
  H   H1392     1.0  0.65975  0.95936  0.59241  1.0000
  C   C784      1.0  0.68085  0.51572  0.41557  1.0000
  C   C785      1.0  0.57275  0.57510  0.60408  1.0000
  H   H1393     1.0  0.86479  0.92985  0.54366  1.0000
  H   H1394     1.0  0.52839  0.52873  0.60686  1.0000
  H   H1395     1.0  0.79806  0.98032  0.52639  1.0000
  H   H1396     1.0  0.53626  0.54678  0.63577  1.0000
  H   H1397     1.0  0.62372  0.98001  0.32712  1.0000
  H   H1398     1.0  0.59277  0.94017  0.59811  1.0000
  C   C786      1.0  0.74151  0.95917  0.49316  1.0000
  H   H1399     1.0  0.85040  0.86068  0.60009  1.0000
  N   N45       1.0  0.63317  0.96405  0.55899  1.0000
  C   C787      1.0  0.85851  0.85269  0.61832  1.0000
  H   H1400     1.0  0.57612  0.90198  0.63671  1.0000
  C   C788      1.0  0.56807  0.98044  0.60764  1.0000
  C   C789      1.0  0.73662  0.96220  0.51891  1.0000
  H   H1401     1.0  0.87091  0.95755  0.59206  1.0000
  H   H1402     1.0  0.62483  0.96086  0.51940  1.0000
  C   C790      1.0  0.86725  0.52108  0.55165  1.0000
  C   C791      1.0  0.58423  0.91583  0.65203  1.0000
  H   H1403     1.0  0.67907  0.53179  0.39979  1.0000
  H   H1404     1.0  0.63090  0.49064  0.48089  1.0000
  H   H1405     1.0  0.74237  0.98146  0.45728  1.0000
  H   H1406     1.0  0.61578  0.97130  0.61016  1.0000
  C   C792      1.0  0.65608  0.49084  0.41355  1.0000
  C   C793      1.0  0.84696  0.54638  0.65393  1.0000
  H   H1407     1.0  0.87547  0.53051  0.53364  1.0000
  H   H1408     1.0  0.80787  0.52603  0.50231  1.0000
  H   H1409     1.0  0.62496  0.51434  0.45468  1.0000
  C   C794      1.0  0.82298  0.51960  0.58090  1.0000
  C   C795      1.0  0.49560  0.49681  0.64364  1.0000
  H   H1410     1.0  0.92101  0.97194  0.57357  1.0000
  H   H1411     1.0  0.87903  0.53528  0.56591  1.0000
  C   C796      1.0  0.87517  0.98187  0.58737  1.0000
  C   C797      1.0  0.73504  0.49259  0.47065  1.0000
  C   C798      1.0  0.80107  0.98365  0.60169  1.0000
  C   C799      1.0  0.61424  0.49632  0.46642  1.0000
  C   C800      1.0  0.81583  0.50241  0.53734  1.0000
  C   C801      1.0  0.82155  0.50657  0.50910  1.0000
  H   H1412     1.0  0.79077  0.50476  0.54057  1.0000
  H   H1413     1.0  0.57571  0.49383  0.49228  1.0000
  C   C802      1.0  0.62208  0.53224  0.65862  1.0000
  H   H1414     1.0  0.87580  0.98003  0.54719  1.0000
  H   H1415     1.0  0.91884  0.98157  0.60603  1.0000
  H   H1416     1.0  0.83745  0.98357  0.51853  1.0000
  C   C803      1.0  0.90977  0.98705  0.58741  1.0000
  H   H1417     1.0  0.92970  0.60501  0.65802  1.0000
  H   H1418     1.0  0.75308  0.90385  0.69601  1.0000
  H   H1419     1.0  0.87979  0.80730  0.73635  1.0000
  H   H1420     1.0  0.89094  0.95215  0.70711  1.0000
  C   C804      1.0  0.85575  0.84342  0.71708  1.0000
  S   S185      1.0  0.94197  0.94542  0.67132  1.0000
  C   C805      1.0  0.86816  0.82913  0.74068  1.0000
  H   H1421     1.0  0.89429  0.59427  0.69470  1.0000
  C   C806      1.0  0.56291  0.92727  0.66956  1.0000
  C   C807      1.0  0.87251  0.61105  0.74030  1.0000
  H   H1422     1.0  0.61247  0.96547  0.70691  1.0000
  S   S186      1.0  0.53389  0.55146  0.70433  1.0000
  H   H1423     1.0  0.51325  0.70030  0.81975  1.0000
  H   H1424     1.0  0.81717  0.88186  0.69110  1.0000
  C   C808      1.0  0.86388  0.51035  0.68534  1.0000
  C   C809      1.0  0.56708  0.54331  0.68594  1.0000
  C   C810      1.0  0.57216  0.51462  0.67513  1.0000
  H   H1425     1.0  0.79625  0.59811  0.72347  1.0000
  H   H1426     1.0  0.52686  0.77615  0.88645  1.0000
  C   C811      1.0  0.97542  0.97043  0.80930  1.0000
  H   H1427     1.0  0.61274  0.50976  0.75014  1.0000
  C   C812      1.0  0.90637  0.56558  0.73688  1.0000
  H   H1428     1.0  0.76563  0.75429  0.66011  1.0000
  H   H1429     1.0  0.84940  0.82480  0.75427  1.0000
  C   C813      1.0  0.89478  0.51877  0.68147  1.0000
  H   H1430     1.0  0.58583  0.58884  0.69073  1.0000
  C   C814      1.0  0.91010  0.60734  0.70696  1.0000
  C   C815      1.0  0.55257  0.50874  0.76398  1.0000
  C   C816      1.0  0.77916  0.78759  0.68835  1.0000
  S   S187      1.0  0.54705  0.96098  0.71220  1.0000
  H   H1431     1.0  0.93579  0.63777  0.74012  1.0000
  H   H1432     1.0  0.91815  0.55943  0.77584  1.0000
  C   C817      1.0  0.90134  0.94081  0.66917  1.0000
  C   C818      1.0  0.88157  0.94583  0.68929  1.0000
  C   C819      1.0  0.84955  0.94379  0.68615  1.0000
  C   C820      1.0  0.50697  0.87857  0.86166  1.0000
  H   H1433     1.0  0.76778  0.79970  0.70383  1.0000
  C   C821      1.0  0.80071  0.86308  0.68656  1.0000
  C   C822      1.0  0.94692  0.63668  0.79071  1.0000
  C   C823      1.0  0.60439  0.95159  0.69160  1.0000
  C   C824      1.0  0.57282  0.94528  0.68955  1.0000
  C   C825      1.0  0.83253  0.82150  0.70416  1.0000
  C   C826      1.0  0.49523  0.69133  0.85588  1.0000
  C   C827      1.0  0.81495  0.60871  0.73452  1.0000
  C   C828      1.0  0.89772  0.51779  0.76266  1.0000
  H   H1434     1.0  0.85730  0.85969  0.66891  1.0000
  S   S188      1.0  0.97269  0.96022  0.74339  1.0000
  H   H1435     1.0  0.95917  0.65566  0.78104  1.0000
  H   H1436     1.0  0.84474  0.80001  0.69936  1.0000
  H   H1437     1.0  0.97019  0.60685  0.66363  1.0000
  H   H1438     1.0  0.74318  0.75275  0.68821  1.0000
  C   C829      1.0  0.77570  0.86193  0.70698  1.0000
  C   C830      1.0  0.84222  0.84058  0.66246  1.0000
  C   C831      1.0  0.92814  0.61613  0.74931  1.0000
  H   H1439     1.0  0.64983  0.94504  0.67618  1.0000
  H   H1440     1.0  0.54619  0.72922  0.90384  1.0000
  C   C832      1.0  0.76369  0.89390  0.71270  1.0000
  N   N46       1.0  0.81731  0.83374  0.68132  1.0000
  H   H1441     1.0  0.90559  0.63202  0.70359  1.0000
  S   S189      1.0  0.98432  0.48998  0.74847  1.0000
  H   H1442     1.0  0.50552  0.72042  0.78394  1.0000
  H   H1443     1.0  0.78248  0.90936  0.71898  1.0000
  H   H1444     1.0  0.53171  0.56888  0.76028  1.0000
  H   H1445     1.0  0.50510  0.72722  0.90557  1.0000
  H   H1446     1.0  0.52707  0.73586  0.93300  1.0000
  H   H1447     1.0  0.49543  0.55549  0.66343  1.0000
  H   H1448     1.0  0.94561  0.57528  0.69538  1.0000
  H   H1449     1.0  0.78437  0.85257  0.72456  1.0000
  H   H1450     1.0  0.97329  0.94712  0.80113  1.0000
  H   H1451     1.0  0.90777  0.60724  0.78654  1.0000
  H   H1452     1.0  0.83460  0.94853  0.70174  1.0000
  H   H1453     1.0  0.75597  0.84792  0.70054  1.0000
  H   H1454     1.0  0.91973  0.50821  0.75616  1.0000
  H   H1455     1.0  0.94436  0.80813  0.73492  1.0000
  C   C833      1.0  0.91900  0.62601  0.77603  1.0000
  H   H1456     1.0  0.79580  0.77149  0.69634  1.0000
  Fe  Fe94      1.0  0.97779  0.94879  0.70258  1.0000
  H   H1457     1.0  0.87170  0.63629  0.73752  1.0000
  H   H1458     1.0  0.53125  0.87330  0.85762  1.0000
  C   C834      1.0  0.62573  0.93996  0.67418  1.0000
  H   H1459     1.0  0.49074  0.64027  0.67431  1.0000
  C   C835      1.0  0.58940  0.56650  0.68257  1.0000
  H   H1460     1.0  0.81417  0.63392  0.73207  1.0000
  C   C836      1.0  0.75493  0.76838  0.67493  1.0000
  H   H1461     1.0  0.52493  0.55543  0.79163  1.0000
  H   H1462     1.0  0.88503  0.84509  0.74930  1.0000
  H   H1463     1.0  0.57801  0.53524  0.79242  1.0000
  C   C837      1.0  0.51793  0.82157  0.96161  1.0000
  S   S190      1.0  0.79602  0.93533  0.66004  1.0000
  H   H1464     1.0  0.87739  0.56090  0.77053  1.0000
  H   H1465     1.0  0.55536  0.49648  0.67745  1.0000
  C   C838      1.0  0.54643  0.83194  0.97566  1.0000
  H   H1466     1.0  0.52913  0.71551  0.98372  1.0000
  H   H1467     1.0  0.86693  0.60755  0.76016  1.0000
  H   H1468     1.0  0.94673  0.63908  0.67159  1.0000
  H   H1469     1.0  0.89132  0.55359  0.72344  1.0000
  C   C839      1.0  0.83671  0.93611  0.66304  1.0000
  H   H1470     1.0  0.81547  0.81480  0.71850  1.0000
  H   H1471     1.0  0.84478  0.57116  0.72789  1.0000
  Fe  Fe95      1.0  0.97432  0.50911  0.71065  1.0000
  H   H1472     1.0  0.87924  0.50961  0.75018  1.0000
  H   H1473     1.0  0.92978  0.55783  0.73208  1.0000
  C   C840      1.0  0.52458  0.77351  0.90687  1.0000
  C   C841      1.0  0.89946  0.55275  0.76305  1.0000
  H   H1474     1.0  0.96081  0.60999  0.70881  1.0000
  H   H1475     1.0  0.84493  0.86531  0.72242  1.0000
  C   C842      1.0  0.84018  0.52401  0.67174  1.0000
  C   C843      1.0  0.52566  0.73936  0.91268  1.0000
  C   C844      1.0  0.94258  0.60037  0.69684  1.0000
  C   C845      1.0  0.84563  0.59637  0.72555  1.0000
  H   H1476     1.0  0.84745  0.60158  0.70549  1.0000
  H   H1477     1.0  0.93971  0.64483  0.80936  1.0000
  N   N47       1.0  0.90410  0.59974  0.73390  1.0000
  H   H1478     1.0  0.87570  0.84846  0.70487  1.0000
  H   H1479     1.0  0.74606  0.89254  0.72759  1.0000
  H   H1480     1.0  0.51721  0.68211  0.86242  1.0000
  H   H1481     1.0  0.58408  0.54837  0.76111  1.0000
  H   H1482     1.0  0.95378  0.76747  0.85250  1.0000
  C   C846      1.0  0.56688  0.53886  0.77433  1.0000
  C   C847      1.0  0.59948  0.50916  0.66167  1.0000
  H   H1483     1.0  0.81095  0.60305  0.75435  1.0000
  H   H1484     1.0  0.52514  0.82851  0.88623  1.0000
  H   H1485     1.0  0.51508  0.86009  0.93749  1.0000
  H   H1486     1.0  0.49531  0.66327  0.82330  1.0000
  C   C848      1.0  0.51778  0.83499  0.93505  1.0000
  H   H1487     1.0  0.94907  0.60193  0.75055  1.0000
  H   H1488     1.0  0.54471  0.78442  0.91572  1.0000
  H   H1489     1.0  0.90291  0.64541  0.77529  1.0000
  H   H1490     1.0  0.85817  0.49319  0.69906  1.0000
  H   H1491     1.0  0.55353  0.58457  0.78555  1.0000
  H   H1492     1.0  0.96278  0.61737  0.79319  1.0000
  C   C849      1.0  0.94746  0.61370  0.67094  1.0000
  C   C850      1.0  0.61660  0.56110  0.66896  1.0000
  H   H1493     1.0  0.77813  0.82118  0.65887  1.0000
  C   C851      1.0  0.50137  0.83431  0.89179  1.0000
  H   H1494     1.0  0.97626  0.84909  0.82386  1.0000
  H   H1495     1.0  0.94158  0.74428  0.82658  1.0000
  C   C852      1.0  0.79583  0.80990  0.67025  1.0000
  C   C853      1.0  0.96166  0.75165  0.83766  1.0000
  H   H1496     1.0  0.54303  0.51455  0.74568  1.0000
  H   H1497     1.0  0.63360  0.57915  0.66686  1.0000
  H   H1498     1.0  0.95978  0.77107  0.76710  1.0000
  H   H1499     1.0  0.78910  0.87093  0.66959  1.0000
  H   H1500     1.0  0.73754  0.78330  0.66648  1.0000
  H   H1501     1.0  0.53882  0.92217  0.66755  1.0000
  H   H1502     1.0  0.54771  0.85731  0.97692  1.0000
  H   H1503     1.0  0.53227  0.50251  0.77557  1.0000
  H   H1504     1.0  0.54108  0.83256  0.92695  1.0000
  S   S191      1.0  0.92359  0.50121  0.69991  1.0000
  H   H1505     1.0  0.51351  0.88235  0.90083  1.0000
  C   C854      1.0  0.54268  0.56333  0.77817  1.0000
  Fe  Fe96      1.0  0.49522  0.95719  0.72075  1.0000
  H   H1506     1.0  0.85709  0.82025  0.66006  1.0000
  C   C855      1.0  0.90157  0.54091  0.66350  1.0000
  H   H1507     1.0  0.65578  0.49565  0.72069  1.0000
  H   H1508     1.0  0.81664  0.51723  0.67506  1.0000
  H   H1509     1.0  0.52313  0.76073  0.75227  1.0000
  H   H1510     1.0  0.97176  0.73132  0.84657  1.0000
  H   H1511     1.0  0.49661  0.50593  0.66279  1.0000
  H   H1512     1.0  0.89294  0.50913  0.78164  1.0000
  H   H1513     1.0  0.56737  0.82331  0.96636  1.0000
  H   H1514     1.0  0.95781  0.82686  0.76262  1.0000
  S   S192      1.0  0.98758  0.88450  0.78028  1.0000
  H   H1515     1.0  0.58884  0.49855  0.72553  1.0000
  H   H1516     1.0  0.95354  0.97598  0.81873  1.0000
  H   H1517     1.0  0.51771  0.79622  0.96168  1.0000
  H   H1518     1.0  0.49402  0.71583  0.86132  1.0000
  H   H1519     1.0  0.49734  0.77000  0.72766  1.0000
  C   C856      1.0  0.49877  0.76439  0.74768  1.0000
  H   H1520     1.0  0.49340  0.66925  0.77807  1.0000
  H   H1521     1.0  0.50367  0.90353  0.85921  1.0000
  C   C857      1.0  0.49325  0.68800  0.82777  1.0000
  H   H1522     1.0  0.49806  0.83005  0.97234  1.0000
  H   H1523     1.0  0.49377  0.63858  0.73852  1.0000
  C   C858      1.0  0.49829  0.86938  0.88813  1.0000
  H   H1524     1.0  0.92513  0.54715  0.65976  1.0000
  H   H1525     1.0  0.49228  0.86629  0.84812  1.0000
  C   C859      1.0  0.96478  0.81251  0.74653  1.0000
  H   H1526     1.0  0.97411  0.78802  0.81295  1.0000
  H   H1527     1.0  0.49019  0.78421  0.75854  1.0000
  C   C860      1.0  0.49420  0.78786  0.91596  1.0000
  H   H1528     1.0  0.97953  0.98734  0.79427  1.0000
  H   H1529     1.0  0.55351  0.49183  0.81247  1.0000
  H   H1530     1.0  0.98462  0.71968  0.75217  1.0000
  N   N48       1.0  0.49400  0.82238  0.91746  1.0000
  H   H1531     1.0  0.49213  0.60410  0.69001  1.0000
  H   H1532     1.0  0.98209  0.76786  0.73881  1.0000
  H   H1533     1.0  0.98201  0.82541  0.73530  1.0000
  C   C861      1.0  0.98536  0.76801  0.82127  1.0000
  C   C862      1.0  0.97765  0.78220  0.75545  1.0000
  H   H1534     1.0  0.97776  0.73621  0.79172  1.0000
  C   C863      1.0  0.59875  0.49018  0.74315  1.0000
  H   H1535     1.0  0.60540  0.49226  0.79121  1.0000
  C   C864      1.0  0.50886  0.72608  0.99126  1.0000
  H   H1536     1.0  0.48915  0.71694  0.74162  1.0000
